
     RDKit          3D

110121  0  0  0  0  0  0  0  0999 V2000
  -16.9692    0.2693   -3.4070 N   0  0  0  0  0  0  0  0  0  0  0  0
  -17.5981    0.2677   -2.4389 C   0  0  0  0  0  0  0  0  0  0  0  0
  -18.3844    0.2399   -1.2432 C   0  0  0  0  0  0  0  0  0  0  0  0
  -19.7674    0.4115   -1.4129 C   0  0  0  0  0  0  0  0  0  0  0  0
  -20.5864    0.3828   -0.3231 C   0  0  0  0  0  0  0  0  0  0  0  0
  -20.0699    0.1894    0.9232 C   0  0  0  0  0  0  0  0  0  0  0  0
  -18.6907    0.0196    1.0847 C   0  0  0  0  0  0  0  0  0  0  0  0
  -17.8457    0.0448    0.0010 C   0  0  0  0  0  0  0  0  0  0  0  0
  -20.1965    0.5674   -2.4006 H   0  0  0  0  0  0  0  0  0  0  0  0
  -20.7262    0.1666    1.7871 H   0  0  0  0  0  0  0  0  0  0  0  0
  -18.3377   -0.1301    2.0962 H   0  0  0  0  0  0  0  0  0  0  0  0
  -12.7048    1.5626   -2.2595 O   0  0  0  0  0  0  0  0  0  0  0  0
  -12.7979    1.5482   -0.7640 S   0  0  0  0  0  0  0  0  0  0  0  0
  -12.7957    2.9207   -0.1786 O   0  0  0  0  0  0  0  0  0  0  0  0
  -14.1306    0.5877   -0.1887 C   0  0  0  0  0  0  0  0  0  0  0  0
  -15.4781    0.7470   -0.3482 C   0  0  0  0  0  0  0  0  0  0  0  0
  -16.4166   -0.1190    0.1814 C   0  0  0  0  0  0  0  0  0  0  0  0
  -15.8889   -1.1801    0.8995 C   0  0  0  0  0  0  0  0  0  0  0  0
  -14.5402   -1.3380    1.0584 C   0  0  0  0  0  0  0  0  0  0  0  0
  -13.6076   -0.4454    0.5105 C   0  0  0  0  0  0  0  0  0  0  0  0
  -12.1742   -0.4663    0.5795 C   0  0  0  0  0  0  0  0  0  0  0  0
  -11.3337   -1.3908    1.2169 C   0  0  0  0  0  0  0  0  0  0  0  0
   -9.9651   -1.2683    1.1868 C   0  0  0  0  0  0  0  0  0  0  0  0
   -9.3382   -0.2404    0.5356 C   0  0  0  0  0  0  0  0  0  0  0  0
  -10.1395    0.6771   -0.0954 C   0  0  0  0  0  0  0  0  0  0  0  0
  -11.5309    0.5497   -0.0629 C   0  0  0  0  0  0  0  0  0  0  0  0
  -15.8899    1.6005   -0.9144 H   0  0  0  0  0  0  0  0  0  0  0  0
  -16.5953   -1.8807    1.3301 H   0  0  0  0  0  0  0  0  0  0  0  0
  -14.2222   -2.2096    1.6436 H   0  0  0  0  0  0  0  0  0  0  0  0
  -11.7720   -2.2402    1.7578 H   0  0  0  0  0  0  0  0  0  0  0  0
   -9.3294   -2.0023    1.6902 H   0  0  0  0  0  0  0  0  0  0  0  0
   -9.7286    1.5317   -0.6403 H   0  0  0  0  0  0  0  0  0  0  0  0
   -4.5280    1.5755   -2.5560 N   0  0  0  0  0  0  0  0  0  0  0  0
   -5.0852    1.1202   -1.6363 C   0  0  0  0  0  0  0  0  0  0  0  0
   -5.7921    0.5426   -0.5185 C   0  0  0  0  0  0  0  0  0  0  0  0
   -7.1854    0.4469   -0.5386 C   0  0  0  0  0  0  0  0  0  0  0  0
   -7.8878   -0.1079    0.5006 C   0  0  0  0  0  0  0  0  0  0  0  0
   -7.1639   -0.5767    1.5863 C   0  0  0  0  0  0  0  0  0  0  0  0
   -5.7892   -0.4822    1.6065 C   0  0  0  0  0  0  0  0  0  0  0  0
   -5.0667    0.0805    0.5536 C   0  0  0  0  0  0  0  0  0  0  0  0
   -7.7117    0.8178   -1.3881 H   0  0  0  0  0  0  0  0  0  0  0  0
   -7.7044   -1.0223    2.4273 H   0  0  0  0  0  0  0  0  0  0  0  0
   -5.2244   -0.8462    2.4501 H   0  0  0  0  0  0  0  0  0  0  0  0
   -0.2897   -3.2008    1.7379 N   0  0  0  0  0  0  0  0  0  0  0  0
   -0.8476   -2.2158    1.4321 C   0  0  0  0  0  0  0  0  0  0  0  0
   -1.5616   -1.0013    1.0722 C   0  0  0  0  0  0  0  0  0  0  0  0
   -2.9339   -0.9956    0.9658 C   0  0  0  0  0  0  0  0  0  0  0  0
   -3.6129    0.1560    0.6421 C   0  0  0  0  0  0  0  0  0  0  0  0
   -2.9050    1.3157    0.4235 C   0  0  0  0  0  0  0  0  0  0  0  0
   -1.5543    1.3081    0.5283 C   0  0  0  0  0  0  0  0  0  0  0  0
   -0.8409    0.1572    0.8533 C   0  0  0  0  0  0  0  0  0  0  0  0
   -3.4368   -1.9424    1.1502 H   0  0  0  0  0  0  0  0  0  0  0  0
   -3.4361    2.2517    0.1698 H   0  0  0  0  0  0  0  0  0  0  0  0
   -0.9727    2.2228    0.3578 H   0  0  0  0  0  0  0  0  0  0  0  0
    3.7864    3.0089    3.2161 N   0  0  0  0  0  0  0  0  0  0  0  0
    3.2870    2.1827    2.5764 C   0  0  0  0  0  0  0  0  0  0  0  0
    2.6571    1.1807    1.7679 C   0  0  0  0  0  0  0  0  0  0  0  0
    1.2617    1.1216    1.6987 C   0  0  0  0  0  0  0  0  0  0  0  0
    0.6214    0.1837    0.9239 C   0  0  0  0  0  0  0  0  0  0  0  0
    1.3759   -0.7135    0.2033 C   0  0  0  0  0  0  0  0  0  0  0  0
    2.7614   -0.6525    0.2749 C   0  0  0  0  0  0  0  0  0  0  0  0
    3.4192    0.3033    1.0643 C   0  0  0  0  0  0  0  0  0  0  0  0
    0.6594    1.8193    2.2596 H   0  0  0  0  0  0  0  0  0  0  0  0
    0.8853   -1.4503   -0.4190 H   0  0  0  0  0  0  0  0  0  0  0  0
    3.3463   -1.3556   -0.2898 H   0  0  0  0  0  0  0  0  0  0  0  0
    7.8945   -1.1647   -2.3261 O   0  0  0  0  0  0  0  0  0  0  0  0
    8.0752    0.0548   -1.5080 S   0  0  0  0  0  0  0  0  0  0  0  0
    7.9899    1.3234   -2.3079 O   0  0  0  0  0  0  0  0  0  0  0  0
    6.9673    0.1451   -0.1575 C   0  0  0  0  0  0  0  0  0  0  0  0
    5.5812    0.1978   -0.1364 C   0  0  0  0  0  0  0  0  0  0  0  0
    4.8860    0.2690    1.0630 C   0  0  0  0  0  0  0  0  0  0  0  0
    5.6480    0.2840    2.2064 C   0  0  0  0  0  0  0  0  0  0  0  0
    7.0192    0.2317    2.1747 C   0  0  0  0  0  0  0  0  0  0  0  0
    7.7345    0.1591    0.9711 C   0  0  0  0  0  0  0  0  0  0  0  0
    9.1503    0.0871    0.7524 C   0  0  0  0  0  0  0  0  0  0  0  0
   10.1928    0.0738    1.6958 C   0  0  0  0  0  0  0  0  0  0  0  0
   11.5059   -0.0085    1.3042 C   0  0  0  0  0  0  0  0  0  0  0  0
   11.8973   -0.0828   -0.0098 C   0  0  0  0  0  0  0  0  0  0  0  0
   10.8869   -0.0702   -0.9415 C   0  0  0  0  0  0  0  0  0  0  0  0
    9.5491    0.0136   -0.5504 C   0  0  0  0  0  0  0  0  0  0  0  0
    5.0054    0.1851   -1.0388 H   0  0  0  0  0  0  0  0  0  0  0  0
    5.1611    0.3325    3.1945 H   0  0  0  0  0  0  0  0  0  0  0  0
    7.5413    0.2487    3.1464 H   0  0  0  0  0  0  0  0  0  0  0  0
    9.9530    0.1307    2.7696 H   0  0  0  0  0  0  0  0  0  0  0  0
   12.3277   -0.0197    2.0362 H   0  0  0  0  0  0  0  0  0  0  0  0
   11.1082   -0.1252   -1.9909 H   0  0  0  0  0  0  0  0  0  0  0  0
   17.4961    1.4218    1.2210 N   0  0  0  0  0  0  0  0  0  0  0  0
   16.6679    0.9228    0.5750 C   0  0  0  0  0  0  0  0  0  0  0  0
   15.6452    0.2989   -0.1920 C   0  0  0  0  0  0  0  0  0  0  0  0
   14.3198    0.4121    0.2507 C   0  0  0  0  0  0  0  0  0  0  0  0
   13.2932   -0.1770   -0.4437 C   0  0  0  0  0  0  0  0  0  0  0  0
   13.6300   -0.8845   -1.5963 C   0  0  0  0  0  0  0  0  0  0  0  0
   14.9241   -1.0025   -2.0397 C   0  0  0  0  0  0  0  0  0  0  0  0
   15.9616   -0.4008   -1.3285 C   0  0  0  0  0  0  0  0  0  0  0  0
   14.0873    0.9716    1.1541 H   0  0  0  0  0  0  0  0  0  0  0  0
   12.8257   -1.3573   -2.1569 H   0  0  0  0  0  0  0  0  0  0  0  0
   15.1594   -1.5677   -2.9517 H   0  0  0  0  0  0  0  0  0  0  0  0
   21.0738    2.3216   -2.7953 N   0  0  0  0  0  0  0  0  0  0  0  0
   20.3716    1.4289   -2.6463 C   0  0  0  0  0  0  0  0  0  0  0  0
   19.4835    0.3140   -2.4800 C   0  0  0  0  0  0  0  0  0  0  0  0
   18.1946    0.5109   -2.0020 C   0  0  0  0  0  0  0  0  0  0  0  0
   17.3228   -0.5385   -1.8326 C   0  0  0  0  0  0  0  0  0  0  0  0
   17.8003   -1.8106   -2.1662 C   0  0  0  0  0  0  0  0  0  0  0  0
   19.0629   -2.0419   -2.6396 C   0  0  0  0  0  0  0  0  0  0  0  0
   19.9132   -0.9568   -2.7966 C   0  0  0  0  0  0  0  0  0  0  0  0
   17.8761    1.4981   -1.7686 H   0  0  0  0  0  0  0  0  0  0  0  0
   17.1375   -2.6562   -2.0446 H   0  0  0  0  0  0  0  0  0  0  0  0
   19.4397   -3.0212   -2.8992 H   0  0  0  0  0  0  0  0  0  0  0  0
  -21.6646    0.5203   -0.4912 H   0  0  0  0  0  0  0  0  0  0  0  0
   20.9247   -1.1558   -3.1778 H   0  0  0  0  0  0  0  0  0  0  0  0
  1  2  3  0
  2  3  1  0
  3  4  2  0
  4  5  1  0
  5  6  2  0
  6  7  1  0
  7  8  2  0
  8  3  1  0
  4  9  1  0
  6 10  1  0
  7 11  1  0
 12 13  2  0
 13 14  2  0
 13 15  1  0
 15 16  2  0
 16 17  1  0
 17 18  2  0
 18 19  1  0
 19 20  2  0
 20 21  1  0
 21 22  2  0
 22 23  1  0
 23 24  2  0
 24 25  1  0
 25 26  2  0
 26 13  1  0
 20 15  1  0
 26 21  1  0
 16 27  1  0
 18 28  1  0
 19 29  1  0
 22 30  1  0
 23 31  1  0
 25 32  1  0
 33 34  3  0
 34 35  1  0
 35 36  2  0
 36 37  1  0
 37 38  2  0
 38 39  1  0
 39 40  2  0
 40 35  1  0
 36 41  1  0
 38 42  1  0
 39 43  1  0
 44 45  3  0
 45 46  1  0
 46 47  2  0
 47 48  1  0
 48 49  2  0
 49 50  1  0
 50 51  2  0
 51 46  1  0
 47 52  1  0
 49 53  1  0
 50 54  1  0
 55 56  3  0
 56 57  1  0
 57 58  2  0
 58 59  1  0
 59 60  2  0
 60 61  1  0
 61 62  2  0
 62 57  1  0
 58 63  1  0
 60 64  1  0
 61 65  1  0
 66 67  2  0
 67 68  2  0
 67 69  1  0
 69 70  2  0
 70 71  1  0
 71 72  2  0
 72 73  1  0
 73 74  2  0
 74 75  1  0
 75 76  2  0
 76 77  1  0
 77 78  2  0
 78 79  1  0
 79 80  2  0
 80 67  1  0
 74 69  1  0
 80 75  1  0
 70 81  1  0
 72 82  1  0
 73 83  1  0
 76 84  1  0
 77 85  1  0
 79 86  1  0
 87 88  3  0
 88 89  1  0
 89 90  2  0
 90 91  1  0
 91 92  2  0
 92 93  1  0
 93 94  2  0
 94 89  1  0
 90 95  1  0
 92 96  1  0
 93 97  1  0
 98 99  3  0
 99100  1  0
100101  2  0
101102  1  0
102103  2  0
103104  1  0
104105  2  0
105100  1  0
101106  1  0
103107  1  0
104108  1  0
  8 17  1  0
 24 37  1  0
 40 48  1  0
 51 59  1  0
 62 71  1  0
 78 91  1  0
 94102  1  0
  5109  1  0
105110  1  0
M  END
