
     RDKit          3D

 40 43  0  0  0  0  0  0  0  0999 V2000
    8.0849    0.3818   -0.8505 C   0  0  0  0  0  0  0  0  0  0  0  0
    7.4967   -0.4980    0.0263 C   0  0  0  0  0  0  0  0  0  0  0  0
    6.1647   -0.5455    0.1211 N   0  0  0  0  0  0  0  0  0  0  0  0
    5.3397    0.2296   -0.6024 C   0  0  0  0  0  0  0  0  0  0  0  0
    5.9328    1.1023   -1.4724 C   0  0  0  0  0  0  0  0  0  0  0  0
    7.2939    1.1752   -1.5930 N   0  0  0  0  0  0  0  0  0  0  0  0
    8.1362   -1.1275    0.6149 H   0  0  0  0  0  0  0  0  0  0  0  0
    5.3458    1.7514   -2.0821 H   0  0  0  0  0  0  0  0  0  0  0  0
    1.3065   -2.6231    2.5734 N   0  0  0  0  0  0  0  0  0  0  0  0
    1.6026   -1.9008    1.7239 C   0  0  0  0  0  0  0  0  0  0  0  0
    2.0048   -0.9640    0.6795 C   0  0  0  0  0  0  0  0  0  0  0  0
    3.3828   -0.7949    0.4650 C   0  0  0  0  0  0  0  0  0  0  0  0
    3.9131    0.1020   -0.4262 C   0  0  0  0  0  0  0  0  0  0  0  0
    3.0148    0.8625   -1.1327 C   0  0  0  0  0  0  0  0  0  0  0  0
    1.6577    0.7316   -0.9579 C   0  0  0  0  0  0  0  0  0  0  0  0
    1.1434   -0.2005   -0.0353 C   0  0  0  0  0  0  0  0  0  0  0  0
    4.0723   -1.4051    1.0330 H   0  0  0  0  0  0  0  0  0  0  0  0
    3.3745    1.6001   -1.8611 H   0  0  0  0  0  0  0  0  0  0  0  0
    0.9791    1.3354   -1.5201 H   0  0  0  0  0  0  0  0  0  0  0  0
   -0.3238   -0.2457    0.1343 C   0  0  0  0  0  0  0  0  0  0  0  0
   -1.0499   -1.3484    0.4150 C   0  0  0  0  0  0  0  0  0  0  0  0
   -2.4075   -1.2948    0.4779 N   0  0  0  0  0  0  0  0  0  0  0  0
   -3.0700   -0.1440    0.2610 C   0  0  0  0  0  0  0  0  0  0  0  0
   -2.3363    0.9747   -0.0257 C   0  0  0  0  0  0  0  0  0  0  0  0
   -1.0154    0.9106   -0.0832 N   0  0  0  0  0  0  0  0  0  0  0  0
   -0.6436   -2.3246    0.5603 H   0  0  0  0  0  0  0  0  0  0  0  0
   -2.8840    1.9071   -0.2017 H   0  0  0  0  0  0  0  0  0  0  0  0
   -8.0665    3.0589   -0.1654 N   0  0  0  0  0  0  0  0  0  0  0  0
   -7.4334    2.1121    0.0048 C   0  0  0  0  0  0  0  0  0  0  0  0
   -6.6505    0.9163    0.2248 C   0  0  0  0  0  0  0  0  0  0  0  0
   -5.2645    0.9699    0.1367 C   0  0  0  0  0  0  0  0  0  0  0  0
   -4.5173   -0.1598    0.3442 C   0  0  0  0  0  0  0  0  0  0  0  0
   -5.1810   -1.3593    0.6448 C   0  0  0  0  0  0  0  0  0  0  0  0
   -6.5447   -1.4376    0.7372 C   0  0  0  0  0  0  0  0  0  0  0  0
   -7.2513   -0.2773    0.5207 C   0  0  0  0  0  0  0  0  0  0  0  0
   -4.8198    1.9418   -0.1017 H   0  0  0  0  0  0  0  0  0  0  0  0
   -4.5691   -2.2175    0.8000 H   0  0  0  0  0  0  0  0  0  0  0  0
   -7.0498   -2.3845    0.9734 H   0  0  0  0  0  0  0  0  0  0  0  0
    9.1774    0.4405   -0.9474 H   0  0  0  0  0  0  0  0  0  0  0  0
   -8.3455   -0.3020    0.5863 H   0  0  0  0  0  0  0  0  0  0  0  0
  1  2  2  0
  2  3  1  0
  3  4  2  0
  4  5  1  0
  5  6  2  0
  6  1  1  0
  2  7  1  0
  5  8  1  0
  9 10  3  0
 10 11  1  0
 11 12  2  0
 12 13  1  0
 13 14  2  0
 14 15  1  0
 15 16  2  0
 16 11  1  0
 12 17  1  0
 14 18  1  0
 15 19  1  0
 20 21  2  0
 21 22  1  0
 22 23  2  0
 23 24  1  0
 24 25  2  0
 25 20  1  0
 21 26  1  0
 24 27  1  0
 28 29  3  0
 29 30  1  0
 30 31  2  0
 31 32  1  0
 32 33  2  0
 33 34  1  0
 34 35  2  0
 35 30  1  0
 31 36  1  0
 33 37  1  0
 34 38  1  0
  4 13  1  0
 16 20  1  0
 23 32  1  0
  1 39  1  0
 35 40  1  0
M  END
