
     RDKit          3D

116129  0  0  0  0  0  0  0  0999 V2000
   16.9420    2.5026   -2.3918 N   0  0  0  0  0  0  0  0  0  0  0  0
   17.2865    1.6604   -1.6418 C   0  0  0  0  0  0  0  0  0  0  0  0
   17.7280    0.6217   -0.7475 C   0  0  0  0  0  0  0  0  0  0  0  0
   19.1047    0.3746   -0.5949 C   0  0  0  0  0  0  0  0  0  0  0  0
   19.5445   -0.6248    0.2430 C   0  0  0  0  0  0  0  0  0  0  0  0
   18.6403   -1.3859    0.9335 C   0  0  0  0  0  0  0  0  0  0  0  0
   17.2997   -1.1304    0.7723 C   0  0  0  0  0  0  0  0  0  0  0  0
   16.8020   -0.1245   -0.0672 C   0  0  0  0  0  0  0  0  0  0  0  0
   19.8132    0.9772   -1.1437 H   0  0  0  0  0  0  0  0  0  0  0  0
   18.9998   -2.1827    1.6012 H   0  0  0  0  0  0  0  0  0  0  0  0
   16.5672   -1.7114    1.3016 H   0  0  0  0  0  0  0  0  0  0  0  0
   12.4200    3.9450    0.2208 N   0  0  0  0  0  0  0  0  0  0  0  0
   12.8535    2.8617    0.0553 C   0  0  0  0  0  0  0  0  0  0  0  0
   13.3969    1.5358   -0.1213 C   0  0  0  0  0  0  0  0  0  0  0  0
   14.7813    1.3356   -0.0271 C   0  0  0  0  0  0  0  0  0  0  0  0
   15.3652    0.1006   -0.1727 C   0  0  0  0  0  0  0  0  0  0  0  0
   14.4973   -0.9670   -0.4243 C   0  0  0  0  0  0  0  0  0  0  0  0
   13.1381   -0.7770   -0.5179 C   0  0  0  0  0  0  0  0  0  0  0  0
   12.5548    0.4811   -0.3681 C   0  0  0  0  0  0  0  0  0  0  0  0
   15.4081    2.1944    0.1781 H   0  0  0  0  0  0  0  0  0  0  0  0
   14.9561   -1.9520   -0.5408 H   0  0  0  0  0  0  0  0  0  0  0  0
   12.4644   -1.6026   -0.7127 H   0  0  0  0  0  0  0  0  0  0  0  0
    8.0406    3.4917   -2.8321 N   0  0  0  0  0  0  0  0  0  0  0  0
    8.5053    2.6956   -2.1270 C   0  0  0  0  0  0  0  0  0  0  0  0
    9.0921    1.6950   -1.2740 C   0  0  0  0  0  0  0  0  0  0  0  0
   10.4873    1.5806   -1.2530 C   0  0  0  0  0  0  0  0  0  0  0  0
   11.1056    0.6435   -0.4659 C   0  0  0  0  0  0  0  0  0  0  0  0
   10.2534   -0.1687    0.2940 C   0  0  0  0  0  0  0  0  0  0  0  0
    8.8917   -0.0600    0.2761 C   0  0  0  0  0  0  0  0  0  0  0  0
    8.2868    0.8732   -0.5065 C   0  0  0  0  0  0  0  0  0  0  0  0
   11.0744    2.2326   -1.8664 H   0  0  0  0  0  0  0  0  0  0  0  0
   10.7782   -0.9108    0.9161 H   0  0  0  0  0  0  0  0  0  0  0  0
    8.3406   -0.7544    0.9143 H   0  0  0  0  0  0  0  0  0  0  0  0
    6.8477    1.0594   -0.4806 C   0  0  0  0  0  0  0  0  0  0  0  0
    6.3570    2.3228   -0.1407 C   0  0  0  0  0  0  0  0  0  0  0  0
    5.0019    2.5235   -0.0413 C   0  0  0  0  0  0  0  0  0  0  0  0
    4.1447    1.4569   -0.2823 C   0  0  0  0  0  0  0  0  0  0  0  0
    2.7847    1.6244   -0.1833 C   0  0  0  0  0  0  0  0  0  0  0  0
    1.8843    0.5855   -0.4086 C   0  0  0  0  0  0  0  0  0  0  0  0
    2.3326   -0.6698   -0.7447 C   0  0  0  0  0  0  0  0  0  0  0  0
    1.4411   -1.6987   -0.9776 C   0  0  0  0  0  0  0  0  0  0  0  0
    1.9603   -2.9460   -1.3339 C   0  0  0  0  0  0  0  0  0  0  0  0
    3.3001   -3.1447   -1.4453 C   0  0  0  0  0  0  0  0  0  0  0  0
    4.1703   -2.0946   -1.2014 C   0  0  0  0  0  0  0  0  0  0  0  0
    5.5242   -2.2816   -1.3072 C   0  0  0  0  0  0  0  0  0  0  0  0
    6.4104   -1.2311   -1.0646 C   0  0  0  0  0  0  0  0  0  0  0  0
    5.9855    0.0263   -0.7152 C   0  0  0  0  0  0  0  0  0  0  0  0
    4.6032    0.2065   -0.6188 C   0  0  0  0  0  0  0  0  0  0  0  0
    3.7201   -0.8288   -0.8446 C   0  0  0  0  0  0  0  0  0  0  0  0
    7.0772    3.1303    0.0456 H   0  0  0  0  0  0  0  0  0  0  0  0
    4.6033    3.4959    0.2211 H   0  0  0  0  0  0  0  0  0  0  0  0
    2.4197    2.6072    0.0796 H   0  0  0  0  0  0  0  0  0  0  0  0
    0.8230    0.7626   -0.3395 H   0  0  0  0  0  0  0  0  0  0  0  0
    1.2593   -3.7518   -1.5192 H   0  0  0  0  0  0  0  0  0  0  0  0
    3.7310   -4.1153   -1.7245 H   0  0  0  0  0  0  0  0  0  0  0  0
    5.8981   -3.2658   -1.5830 H   0  0  0  0  0  0  0  0  0  0  0  0
    7.4480   -1.4808   -1.1874 H   0  0  0  0  0  0  0  0  0  0  0  0
   -2.6995   -0.1671    3.0108 N   0  0  0  0  0  0  0  0  0  0  0  0
   -2.3371   -0.5567    1.9787 C   0  0  0  0  0  0  0  0  0  0  0  0
   -1.8598   -1.0197    0.6868 C   0  0  0  0  0  0  0  0  0  0  0  0
   -0.5118   -1.1537    0.4395 C   0  0  0  0  0  0  0  0  0  0  0  0
   -0.0106   -1.5727   -0.7900 C   0  0  0  0  0  0  0  0  0  0  0  0
   -0.9182   -1.8559   -1.7726 C   0  0  0  0  0  0  0  0  0  0  0  0
   -2.2745   -1.7183   -1.5133 C   0  0  0  0  0  0  0  0  0  0  0  0
   -2.7663   -1.3009   -0.2876 C   0  0  0  0  0  0  0  0  0  0  0  0
    0.1833   -0.9133    1.2566 H   0  0  0  0  0  0  0  0  0  0  0  0
   -0.5412   -2.1813   -2.7297 H   0  0  0  0  0  0  0  0  0  0  0  0
   -2.9785   -1.9426   -2.2936 H   0  0  0  0  0  0  0  0  0  0  0  0
   -7.2273   -2.7345    3.3629 N   0  0  0  0  0  0  0  0  0  0  0  0
   -6.7843   -2.2462    2.3991 C   0  0  0  0  0  0  0  0  0  0  0  0
   -6.2083   -1.6340    1.2283 C   0  0  0  0  0  0  0  0  0  0  0  0
   -4.8329   -1.7759    1.0087 C   0  0  0  0  0  0  0  0  0  0  0  0
   -4.2177   -1.1942   -0.0710 C   0  0  0  0  0  0  0  0  0  0  0  0
   -5.0109   -0.4676   -0.9316 C   0  0  0  0  0  0  0  0  0  0  0  0
   -6.3793   -0.3198   -0.7259 C   0  0  0  0  0  0  0  0  0  0  0  0
   -6.9985   -0.9115    0.3747 C   0  0  0  0  0  0  0  0  0  0  0  0
   -4.2579   -2.3720    1.7084 H   0  0  0  0  0  0  0  0  0  0  0  0
   -4.5238   -0.0034   -1.7953 H   0  0  0  0  0  0  0  0  0  0  0  0
   -6.9888    0.2560   -1.4122 H   0  0  0  0  0  0  0  0  0  0  0  0
  -12.1182   -3.6010    1.6617 N   0  0  0  0  0  0  0  0  0  0  0  0
  -11.4683   -2.6708    1.4147 C   0  0  0  0  0  0  0  0  0  0  0  0
  -10.6449   -1.5212    1.1247 C   0  0  0  0  0  0  0  0  0  0  0  0
   -9.3071   -1.7635    0.8859 C   0  0  0  0  0  0  0  0  0  0  0  0
   -8.4346   -0.7407    0.5991 C   0  0  0  0  0  0  0  0  0  0  0  0
   -8.9547    0.5524    0.5558 C   0  0  0  0  0  0  0  0  0  0  0  0
  -10.2934    0.7771    0.7955 C   0  0  0  0  0  0  0  0  0  0  0  0
  -11.1545   -0.2477    1.0828 C   0  0  0  0  0  0  0  0  0  0  0  0
   -8.9143   -2.7964    0.9053 H   0  0  0  0  0  0  0  0  0  0  0  0
   -8.3299    1.4040    0.3350 H   0  0  0  0  0  0  0  0  0  0  0  0
  -10.7161    1.7861    0.7648 H   0  0  0  0  0  0  0  0  0  0  0  0
  -12.5565   -0.0315    1.4209 C   0  0  0  0  0  0  0  0  0  0  0  0
  -13.0134   -0.4708    2.6812 C   0  0  0  0  0  0  0  0  0  0  0  0
  -14.3009   -0.2370    3.0801 C   0  0  0  0  0  0  0  0  0  0  0  0
  -15.2163    0.4251    2.2996 C   0  0  0  0  0  0  0  0  0  0  0  0
  -16.5124    0.6507    2.7263 C   0  0  0  0  0  0  0  0  0  0  0  0
  -17.4305    1.3128    1.9465 C   0  0  0  0  0  0  0  0  0  0  0  0
  -17.0011    1.7540    0.6923 C   0  0  0  0  0  0  0  0  0  0  0  0
  -17.9343    2.4070   -0.0789 C   0  0  0  0  0  0  0  0  0  0  0  0
  -17.5321    2.8475   -1.3332 C   0  0  0  0  0  0  0  0  0  0  0  0
  -16.2277    2.6154   -1.7514 C   0  0  0  0  0  0  0  0  0  0  0  0
  -15.3053    1.9604   -0.9671 C   0  0  0  0  0  0  0  0  0  0  0  0
  -14.0220    1.7398   -1.4028 C   0  0  0  0  0  0  0  0  0  0  0  0
  -13.0750    1.0710   -0.6132 C   0  0  0  0  0  0  0  0  0  0  0  0
  -13.4639    0.6285    0.6354 C   0  0  0  0  0  0  0  0  0  0  0  0
  -14.7616    0.8548    1.0576 C   0  0  0  0  0  0  0  0  0  0  0  0
  -15.7066    1.5188    0.2896 C   0  0  0  0  0  0  0  0  0  0  0  0
  -12.2872   -0.9943    3.3075 H   0  0  0  0  0  0  0  0  0  0  0  0
  -14.6398   -0.5826    4.0598 H   0  0  0  0  0  0  0  0  0  0  0  0
  -16.8341    0.3051    3.7008 H   0  0  0  0  0  0  0  0  0  0  0  0
  -18.4484    1.4995    2.2614 H   0  0  0  0  0  0  0  0  0  0  0  0
  -18.2505    3.3615   -1.9585 H   0  0  0  0  0  0  0  0  0  0  0  0
  -15.9551    2.9689   -2.7219 H   0  0  0  0  0  0  0  0  0  0  0  0
  -13.7389    2.0861   -2.3658 H   0  0  0  0  0  0  0  0  0  0  0  0
  -12.0961    0.9069   -0.9836 H   0  0  0  0  0  0  0  0  0  0  0  0
   20.5917   -0.8559    0.3966 H   0  0  0  0  0  0  0  0  0  0  0  0
  -18.9495    2.5874    0.2514 H   0  0  0  0  0  0  0  0  0  0  0  0
  1  2  3  0
  2  3  1  0
  3  4  2  0
  4  5  1  0
  5  6  2  0
  6  7  1  0
  7  8  2  0
  8  3  1  0
  4  9  1  0
  6 10  1  0
  7 11  1  0
 12 13  3  0
 13 14  1  0
 14 15  2  0
 15 16  1  0
 16 17  2  0
 17 18  1  0
 18 19  2  0
 19 14  1  0
 15 20  1  0
 17 21  1  0
 18 22  1  0
 23 24  3  0
 24 25  1  0
 25 26  2  0
 26 27  1  0
 27 28  2  0
 28 29  1  0
 29 30  2  0
 30 25  1  0
 26 31  1  0
 28 32  1  0
 29 33  1  0
 34 35  2  0
 35 36  1  0
 36 37  2  0
 37 38  1  0
 38 39  2  0
 39 40  1  0
 40 41  2  0
 41 42  1  0
 42 43  2  0
 43 44  1  0
 44 45  2  0
 45 46  1  0
 46 47  2  0
 47 48  1  0
 48 49  2  0
 47 34  1  0
 48 37  1  0
 49 40  1  0
 49 44  1  0
 35 50  1  0
 36 51  1  0
 38 52  1  0
 39 53  1  0
 42 54  1  0
 43 55  1  0
 45 56  1  0
 46 57  1  0
 58 59  3  0
 59 60  1  0
 60 61  2  0
 61 62  1  0
 62 63  2  0
 63 64  1  0
 64 65  2  0
 65 60  1  0
 61 66  1  0
 63 67  1  0
 64 68  1  0
 69 70  3  0
 70 71  1  0
 71 72  2  0
 72 73  1  0
 73 74  2  0
 74 75  1  0
 75 76  2  0
 76 71  1  0
 72 77  1  0
 74 78  1  0
 75 79  1  0
 80 81  3  0
 81 82  1  0
 82 83  2  0
 83 84  1  0
 84 85  2  0
 85 86  1  0
 86 87  2  0
 87 82  1  0
 83 88  1  0
 85 89  1  0
 86 90  1  0
 91 92  2  0
 92 93  1  0
 93 94  2  0
 94 95  1  0
 95 96  2  0
 96 97  1  0
 97 98  2  0
 98 99  1  0
 99100  2  0
100101  1  0
101102  2  0
102103  1  0
103104  2  0
104105  1  0
105106  2  0
104 91  1  0
105 94  1  0
106 97  1  0
106101  1  0
 92107  1  0
 93108  1  0
 95109  1  0
 96110  1  0
 99111  1  0
100112  1  0
102113  1  0
103114  1  0
  8 16  1  0
 19 27  1  0
 30 34  1  0
 41 62  1  0
 65 73  1  0
 76 84  1  0
 87 91  1  0
  5115  1  0
 98116  1  0
M  END
