116

N         16.94200        2.50260       -2.39180
C         17.28650        1.66040       -1.64180
C         17.72800        0.62170       -0.74750
C         19.10470        0.37460       -0.59490
C         19.54450       -0.62480        0.24300
C         18.64030       -1.38590        0.93350
C         17.29970       -1.13040        0.77230
C         16.80200       -0.12450       -0.06720
H         19.81320        0.97720       -1.14370
H         18.99980       -2.18270        1.60120
H         16.56720       -1.71140        1.30160
N         12.42000        3.94500        0.22080
C         12.85350        2.86170        0.05530
C         13.39690        1.53580       -0.12130
C         14.78130        1.33560       -0.02710
C         15.36520        0.10060       -0.17270
C         14.49730       -0.96700       -0.42430
C         13.13810       -0.77700       -0.51790
C         12.55480        0.48110       -0.36810
H         15.40810        2.19440        0.17810
H         14.95610       -1.95200       -0.54080
H         12.46440       -1.60260       -0.71270
N          8.04060        3.49170       -2.83210
C          8.50530        2.69560       -2.12700
C          9.09210        1.69500       -1.27400
C         10.48730        1.58060       -1.25300
C         11.10560        0.64350       -0.46590
C         10.25340       -0.16870        0.29400
C          8.89170       -0.06000        0.27610
C          8.28680        0.87320       -0.50650
H         11.07440        2.23260       -1.86640
H         10.77820       -0.91080        0.91610
H          8.34060       -0.75440        0.91430
C          6.84770        1.05940       -0.48060
C          6.35700        2.32280       -0.14070
C          5.00190        2.52350       -0.04130
C          4.14470        1.45690       -0.28230
C          2.78470        1.62440       -0.18330
C          1.88430        0.58550       -0.40860
C          2.33260       -0.66980       -0.74470
C          1.44110       -1.69870       -0.97760
C          1.96030       -2.94600       -1.33390
C          3.30010       -3.14470       -1.44530
C          4.17030       -2.09460       -1.20140
C          5.52420       -2.28160       -1.30720
C          6.41040       -1.23110       -1.06460
C          5.98550        0.02630       -0.71520
C          4.60320        0.20650       -0.61880
C          3.72010       -0.82880       -0.84460
H          7.07720        3.13030        0.04560
H          4.60330        3.49590        0.22110
H          2.41970        2.60720        0.07960
H          0.82300        0.76260       -0.33950
H          1.25930       -3.75180       -1.51920
H          3.73100       -4.11530       -1.72450
H          5.89810       -3.26580       -1.58300
H          7.44800       -1.48080       -1.18740
N         -2.69950       -0.16710        3.01080
C         -2.33710       -0.55670        1.97870
C         -1.85980       -1.01970        0.68680
C         -0.51180       -1.15370        0.43950
C         -0.01060       -1.57270       -0.79000
C         -0.91820       -1.85590       -1.77260
C         -2.27450       -1.71830       -1.51330
C         -2.76630       -1.30090       -0.28760
H          0.18330       -0.91330        1.25660
H         -0.54120       -2.18130       -2.72970
H         -2.97850       -1.94260       -2.29360
N         -7.22730       -2.73450        3.36290
C         -6.78430       -2.24620        2.39910
C         -6.20830       -1.63400        1.22830
C         -4.83290       -1.77590        1.00870
C         -4.21770       -1.19420       -0.07100
C         -5.01090       -0.46760       -0.93160
C         -6.37930       -0.31980       -0.72590
C         -6.99850       -0.91150        0.37470
H         -4.25790       -2.37200        1.70840
H         -4.52380       -0.00340       -1.79530
H         -6.98880        0.25600       -1.41220
N        -12.11820       -3.60100        1.66170
C        -11.46830       -2.67080        1.41470
C        -10.64490       -1.52120        1.12470
C         -9.30710       -1.76350        0.88590
C         -8.43460       -0.74070        0.59910
C         -8.95470        0.55240        0.55580
C        -10.29340        0.77710        0.79550
C        -11.15450       -0.24770        1.08280
H         -8.91430       -2.79640        0.90530
H         -8.32990        1.40400        0.33500
H        -10.71610        1.78610        0.76480
C        -12.55650       -0.03150        1.42090
C        -13.01340       -0.47080        2.68120
C        -14.30090       -0.23700        3.08010
C        -15.21630        0.42510        2.29960
C        -16.51240        0.65070        2.72630
C        -17.43050        1.31280        1.94650
C        -17.00110        1.75400        0.69230
C        -17.93430        2.40700       -0.07890
C        -17.53210        2.84750       -1.33320
C        -16.22770        2.61540       -1.75140
C        -15.30530        1.96040       -0.96710
C        -14.02200        1.73980       -1.40280
C        -13.07500        1.07100       -0.61320
C        -13.46390        0.62850        0.63540
C        -14.76160        0.85480        1.05760
C        -15.70660        1.51880        0.28960
H        -12.28720       -0.99430        3.30750
H        -14.63980       -0.58260        4.05980
H        -16.83410        0.30510        3.70080
H        -18.44840        1.49950        2.26140
H        -18.25050        3.36150       -1.95850
H        -15.95510        2.96890       -2.72190
H        -13.73890        2.08610       -2.36580
H        -12.09610        0.90690       -0.98360
H         20.59170       -0.85590        0.39660
H        -18.94950        2.58740        0.25140
