60

O         -8.05440        3.02030        1.12170
S         -8.07130        1.55620        1.43340
O         -8.08360        1.28690        2.90720
C         -9.42000        0.75580        0.64980
C        -10.76990        0.95080        0.82250
C        -11.64310        0.19010        0.08220
C        -11.13170       -0.72960       -0.79570
C         -9.79260       -0.90270       -0.94750
C         -8.85640       -0.14910       -0.21340
C         -7.42900       -0.18610       -0.23340
C         -6.57680       -1.00120       -1.00720
C         -5.22960       -0.91210       -0.90700
C         -4.59970       -0.02410       -0.04710
C         -5.42900        0.76750        0.70430
C         -6.80340        0.68960        0.61460
H        -11.13020        1.68890        1.52760
H        -11.81340       -1.32540       -1.37550
H         -9.43920       -1.65100       -1.66250
H         -6.97280       -1.72730       -1.70900
H         -4.59960       -1.54870       -1.51170
H         -5.03880        1.49160        1.40420
C         -3.15150        0.05180        0.04160
C         -2.47250        0.90670        0.87010
N         -1.12750        0.94120        0.91780
C         -0.37900        0.11390        0.13120
C         -1.05000       -0.73920       -0.69550
N         -2.40760       -0.77220       -0.74200
H         -3.05430        1.58010        1.51070
H         -0.47490       -1.41150       -1.33510
O          4.52020       -1.15730       -2.74440
S          4.55940       -1.40360       -1.27290
O          4.51890       -2.86480       -0.93460
C          3.28070       -0.52570       -0.44350
C          1.88790       -0.61820       -0.54750
C          1.07580        0.17480        0.20550
C          1.70310        1.06230        1.06480
C          3.06880        1.15410        1.16780
C          3.90970        0.34020        0.39510
C          5.34900        0.30750        0.37930
C          6.27680        1.04610        1.09890
C          7.63100        0.88390        0.95770
C          8.15510       -0.02960        0.08590
C          7.23790       -0.78830       -0.65290
C          5.88810       -0.60250       -0.48900
H          1.49810       -1.34590       -1.25060
H          1.04160        1.69100        1.66160
H          3.48560        1.88600        1.87540
H          5.93850        1.80800        1.82700
H          8.30830        1.52070        1.57670
H          7.60000       -1.52140       -1.35310
C          9.56840       -0.23730       -0.09830
C         10.49890        0.48250        0.60320
N         11.83520        0.28530        0.42820
C         12.24380       -0.63570       -0.45210
C         11.33690       -1.36850       -1.16590
N         10.03530       -1.15580       -0.97560
H         10.25650        1.24030        1.32850
H         11.70260       -2.09930       -1.86390
H        -12.73800        0.32170        0.19680
H         13.32790       -0.76180       -0.56140
