
     RDKit          3D

150171  0  0  0  0  0  0  0  0999 V2000
  -23.4140   -2.3564   -3.4874 C   0  0  0  0  0  0  0  0  0  0  0  0
  -22.3485   -2.5311   -4.3822 C   0  0  0  0  0  0  0  0  0  0  0  0
  -21.0764   -2.3428   -3.9471 C   0  0  0  0  0  0  0  0  0  0  0  0
  -20.8324   -1.9792   -2.6250 C   0  0  0  0  0  0  0  0  0  0  0  0
  -19.5228   -1.8102   -2.2567 C   0  0  0  0  0  0  0  0  0  0  0  0
  -19.2821   -1.4485   -0.9273 C   0  0  0  0  0  0  0  0  0  0  0  0
  -20.2761   -1.2612   -0.0020 C   0  0  0  0  0  0  0  0  0  0  0  0
  -19.9817   -0.9142    1.2991 C   0  0  0  0  0  0  0  0  0  0  0  0
  -21.0189   -0.7570    2.1642 C   0  0  0  0  0  0  0  0  0  0  0  0
  -22.3472   -0.9443    1.7351 C   0  0  0  0  0  0  0  0  0  0  0  0
  -22.6410   -1.2908    0.4335 C   0  0  0  0  0  0  0  0  0  0  0  0
  -23.9461   -1.4880   -0.0225 C   0  0  0  0  0  0  0  0  0  0  0  0
  -24.2229   -1.8359   -1.3106 C   0  0  0  0  0  0  0  0  0  0  0  0
  -23.1526   -1.9972   -2.1850 C   0  0  0  0  0  0  0  0  0  0  0  0
  -21.8736   -1.8033   -1.7309 C   0  0  0  0  0  0  0  0  0  0  0  0
  -21.5732   -1.4483   -0.4382 C   0  0  0  0  0  0  0  0  0  0  0  0
  -22.4952   -2.8132   -5.4207 H   0  0  0  0  0  0  0  0  0  0  0  0
  -20.2537   -2.4831   -4.6381 H   0  0  0  0  0  0  0  0  0  0  0  0
  -18.6845   -1.9357   -2.9149 H   0  0  0  0  0  0  0  0  0  0  0  0
  -18.2680   -1.3217   -0.6347 H   0  0  0  0  0  0  0  0  0  0  0  0
  -20.8317   -0.4884    3.1865 H   0  0  0  0  0  0  0  0  0  0  0  0
  -23.1429   -0.8142    2.4334 H   0  0  0  0  0  0  0  0  0  0  0  0
  -24.7464   -1.3539    0.6974 H   0  0  0  0  0  0  0  0  0  0  0  0
  -25.2340   -1.9852   -1.6461 H   0  0  0  0  0  0  0  0  0  0  0  0
  -15.3205    2.0886   -0.2481 O   0  0  0  0  0  0  0  0  0  0  0  0
  -15.4515    1.8501    1.2112 S   0  0  0  0  0  0  0  0  0  0  0  0
  -15.8083    3.1078    1.9605 O   0  0  0  0  0  0  0  0  0  0  0  0
  -16.5480    0.5534    1.5980 C   0  0  0  0  0  0  0  0  0  0  0  0
  -17.8640    0.3915    1.2935 C   0  0  0  0  0  0  0  0  0  0  0  0
  -18.6121   -0.7121    1.6992 C   0  0  0  0  0  0  0  0  0  0  0  0
  -17.9025   -1.6380    2.4485 C   0  0  0  0  0  0  0  0  0  0  0  0
  -16.5767   -1.4672    2.7503 C   0  0  0  0  0  0  0  0  0  0  0  0
  -15.8628   -0.3491    2.3205 C   0  0  0  0  0  0  0  0  0  0  0  0
  -14.4591   -0.0550    2.5018 C   0  0  0  0  0  0  0  0  0  0  0  0
  -13.4643   -0.8108    3.1416 C   0  0  0  0  0  0  0  0  0  0  0  0
  -12.1466   -0.4046    3.1649 C   0  0  0  0  0  0  0  0  0  0  0  0
  -11.7332    0.7588    2.5661 C   0  0  0  0  0  0  0  0  0  0  0  0
  -12.6924    1.5162    1.9374 C   0  0  0  0  0  0  0  0  0  0  0  0
  -14.0268    1.0989    1.9165 C   0  0  0  0  0  0  0  0  0  0  0  0
  -18.4107    1.1277    0.7036 H   0  0  0  0  0  0  0  0  0  0  0  0
  -18.4574   -2.5194    2.7927 H   0  0  0  0  0  0  0  0  0  0  0  0
  -16.1027   -2.2609    3.3529 H   0  0  0  0  0  0  0  0  0  0  0  0
  -13.7225   -1.7517    3.6414 H   0  0  0  0  0  0  0  0  0  0  0  0
  -11.3738   -1.0021    3.6670 H   0  0  0  0  0  0  0  0  0  0  0  0
  -12.4178    2.4334    1.4568 H   0  0  0  0  0  0  0  0  0  0  0  0
   -6.5923   -1.4102    1.0860 O   0  0  0  0  0  0  0  0  0  0  0  0
   -6.5883   -0.5005    2.2655 S   0  0  0  0  0  0  0  0  0  0  0  0
   -6.3386   -1.2538    3.5412 O   0  0  0  0  0  0  0  0  0  0  0  0
   -7.9908    0.5165    2.3648 C   0  0  0  0  0  0  0  0  0  0  0  0
   -9.3148    0.1998    2.4417 C   0  0  0  0  0  0  0  0  0  0  0  0
  -10.3256    1.1626    2.5246 C   0  0  0  0  0  0  0  0  0  0  0  0
   -9.8919    2.4635    2.5264 C   0  0  0  0  0  0  0  0  0  0  0  0
   -8.5531    2.7791    2.4485 C   0  0  0  0  0  0  0  0  0  0  0  0
   -7.5703    1.7985    2.3637 C   0  0  0  0  0  0  0  0  0  0  0  0
   -6.1419    1.9657    2.2062 C   0  0  0  0  0  0  0  0  0  0  0  0
   -5.3863    3.1452    2.1159 C   0  0  0  0  0  0  0  0  0  0  0  0
   -4.0228    3.1229    1.9100 C   0  0  0  0  0  0  0  0  0  0  0  0
   -3.3240    1.9541    1.7826 C   0  0  0  0  0  0  0  0  0  0  0  0
   -4.0517    0.7880    1.8718 C   0  0  0  0  0  0  0  0  0  0  0  0
   -5.4276    0.8085    2.0801 C   0  0  0  0  0  0  0  0  0  0  0  0
   -9.6484   -0.8481    2.4403 H   0  0  0  0  0  0  0  0  0  0  0  0
  -10.6486    3.2510    2.5883 H   0  0  0  0  0  0  0  0  0  0  0  0
   -8.2880    3.8497    2.4557 H   0  0  0  0  0  0  0  0  0  0  0  0
   -5.8851    4.1163    2.2123 H   0  0  0  0  0  0  0  0  0  0  0  0
   -3.4668    4.0584    1.8448 H   0  0  0  0  0  0  0  0  0  0  0  0
   -3.5629   -0.1856    1.7796 H   0  0  0  0  0  0  0  0  0  0  0  0
   -1.8789    1.8702    1.5469 C   0  0  0  0  0  0  0  0  0  0  0  0
   -1.0257    2.9265    1.5001 C   0  0  0  0  0  0  0  0  0  0  0  0
    0.2922    2.7599    1.2685 N   0  0  0  0  0  0  0  0  0  0  0  0
    0.8500    1.5532    1.0705 C   0  0  0  0  0  0  0  0  0  0  0  0
   -0.0590    0.4872    1.1285 C   0  0  0  0  0  0  0  0  0  0  0  0
   -1.3579    0.6495    1.3547 N   0  0  0  0  0  0  0  0  0  0  0  0
   -1.4522    3.9234    1.6591 H   0  0  0  0  0  0  0  0  0  0  0  0
    0.3778   -0.5073    1.0062 H   0  0  0  0  0  0  0  0  0  0  0  0
    2.2743    1.3712    0.9469 C   0  0  0  0  0  0  0  0  0  0  0  0
    3.0840    1.9976    1.8611 C   0  0  0  0  0  0  0  0  0  0  0  0
    4.4336    1.8002    1.7896 C   0  0  0  0  0  0  0  0  0  0  0  0
    5.0147    0.9934    0.8280 C   0  0  0  0  0  0  0  0  0  0  0  0
    6.3838    0.8109    0.8081 C   0  0  0  0  0  0  0  0  0  0  0  0
    6.9367   -0.0140   -0.1580 C   0  0  0  0  0  0  0  0  0  0  0  0
    6.1439   -0.6500   -1.0963 C   0  0  0  0  0  0  0  0  0  0  0  0
    6.7255   -1.4637   -2.0733 C   0  0  0  0  0  0  0  0  0  0  0  0
    5.9629   -2.0798   -3.0181 C   0  0  0  0  0  0  0  0  0  0  0  0
    4.5882   -1.8628   -2.9633 C   0  0  0  0  0  0  0  0  0  0  0  0
    4.0116   -1.0638   -2.0013 C   0  0  0  0  0  0  0  0  0  0  0  0
    2.6469   -0.8804   -1.9800 C   0  0  0  0  0  0  0  0  0  0  0  0
    2.0968   -0.0737   -0.9933 C   0  0  0  0  0  0  0  0  0  0  0  0
    2.8187    0.5694   -0.0231 C   0  0  0  0  0  0  0  0  0  0  0  0
    4.2085    0.3729   -0.0880 C   0  0  0  0  0  0  0  0  0  0  0  0
    4.7908   -0.4346   -1.0343 C   0  0  0  0  0  0  0  0  0  0  0  0
    2.6340    2.6287    2.6083 H   0  0  0  0  0  0  0  0  0  0  0  0
    5.0692    2.2923    2.5078 H   0  0  0  0  0  0  0  0  0  0  0  0
    7.0186    1.2961    1.5327 H   0  0  0  0  0  0  0  0  0  0  0  0
    7.9970   -0.1862   -0.1988 H   0  0  0  0  0  0  0  0  0  0  0  0
    6.4110   -2.7095   -3.7759 H   0  0  0  0  0  0  0  0  0  0  0  0
    3.9952   -2.3592   -3.7210 H   0  0  0  0  0  0  0  0  0  0  0  0
    2.0218   -1.3578   -2.7233 H   0  0  0  0  0  0  0  0  0  0  0  0
    1.0416    0.0608   -1.0573 H   0  0  0  0  0  0  0  0  0  0  0  0
   11.5854    1.5788   -2.5870 O   0  0  0  0  0  0  0  0  0  0  0  0
   11.7152    0.1542   -2.9832 S   0  0  0  0  0  0  0  0  0  0  0  0
   11.8616   -0.0125   -4.4712 O   0  0  0  0  0  0  0  0  0  0  0  0
   10.3812   -0.8327   -2.3892 C   0  0  0  0  0  0  0  0  0  0  0  0
    9.0053   -0.7019   -2.5535 C   0  0  0  0  0  0  0  0  0  0  0  0
    8.1801   -1.6333   -1.9870 C   0  0  0  0  0  0  0  0  0  0  0  0
    8.7275   -2.6667   -1.2798 C   0  0  0  0  0  0  0  0  0  0  0  0
   10.0761   -2.7846   -1.1246 C   0  0  0  0  0  0  0  0  0  0  0  0
   10.9715   -1.8515   -1.6828 C   0  0  0  0  0  0  0  0  0  0  0  0
   12.3917   -1.7755   -1.5508 C   0  0  0  0  0  0  0  0  0  0  0  0
   13.2576   -2.6178   -0.8217 C   0  0  0  0  0  0  0  0  0  0  0  0
   14.5842   -2.3852   -0.7040 C   0  0  0  0  0  0  0  0  0  0  0  0
   15.1650   -1.2912   -1.3056 C   0  0  0  0  0  0  0  0  0  0  0  0
   14.3557   -0.4505   -2.0285 C   0  0  0  0  0  0  0  0  0  0  0  0
   12.9869   -0.6937   -2.1467 C   0  0  0  0  0  0  0  0  0  0  0  0
    8.6607    0.1407   -3.1300 H   0  0  0  0  0  0  0  0  0  0  0  0
    8.0543   -3.3857   -0.8484 H   0  0  0  0  0  0  0  0  0  0  0  0
   10.4749   -3.6377   -0.5468 H   0  0  0  0  0  0  0  0  0  0  0  0
   12.8685   -3.5020   -0.3229 H   0  0  0  0  0  0  0  0  0  0  0  0
   15.2046   -3.0779   -0.1189 H   0  0  0  0  0  0  0  0  0  0  0  0
   14.7715    0.4070   -2.5113 H   0  0  0  0  0  0  0  0  0  0  0  0
   19.7291    1.8919   -2.9619 O   0  0  0  0  0  0  0  0  0  0  0  0
   20.0053    0.4485   -2.6554 S   0  0  0  0  0  0  0  0  0  0  0  0
   20.3649   -0.3370   -3.8584 O   0  0  0  0  0  0  0  0  0  0  0  0
   18.7498   -0.2585   -1.6830 C   0  0  0  0  0  0  0  0  0  0  0  0
   17.4218   -0.4880   -1.9980 C   0  0  0  0  0  0  0  0  0  0  0  0
   16.5853   -1.0650   -1.0637 C   0  0  0  0  0  0  0  0  0  0  0  0
   17.1305   -1.3908    0.1626 C   0  0  0  0  0  0  0  0  0  0  0  0
   18.4259   -1.1567    0.4423 C   0  0  0  0  0  0  0  0  0  0  0  0
   19.3130   -0.5678   -0.4835 C   0  0  0  0  0  0  0  0  0  0  0  0
   20.7047   -0.2480   -0.3519 C   0  0  0  0  0  0  0  0  0  0  0  0
   21.5532   -0.4431    0.7597 C   0  0  0  0  0  0  0  0  0  0  0  0
   22.8738   -0.0648    0.6943 C   0  0  0  0  0  0  0  0  0  0  0  0
   23.4473    0.5099   -0.4165 C   0  0  0  0  0  0  0  0  0  0  0  0
   22.6217    0.7020   -1.5043 C   0  0  0  0  0  0  0  0  0  0  0  0
   21.2951    0.3239   -1.4415 C   0  0  0  0  0  0  0  0  0  0  0  0
   17.0289   -0.2201   -2.9689 H   0  0  0  0  0  0  0  0  0  0  0  0
   16.5105   -1.8438    0.9281 H   0  0  0  0  0  0  0  0  0  0  0  0
   18.8151   -1.4305    1.4243 H   0  0  0  0  0  0  0  0  0  0  0  0
   21.1590   -0.8901    1.6729 H   0  0  0  0  0  0  0  0  0  0  0  0
   23.5088   -0.2299    1.5819 H   0  0  0  0  0  0  0  0  0  0  0  0
   23.0089    1.1427   -2.3947 H   0  0  0  0  0  0  0  0  0  0  0  0
   24.8561    0.9040   -0.4628 C   0  0  0  0  0  0  0  0  0  0  0  0
   25.7368    0.7729    0.5725 C   0  0  0  0  0  0  0  0  0  0  0  0
   27.0382    1.1607    0.4441 N   0  0  0  0  0  0  0  0  0  0  0  0
   27.5002    1.6891   -0.7136 C   0  0  0  0  0  0  0  0  0  0  0  0
   26.6006    1.8194   -1.7611 C   0  0  0  0  0  0  0  0  0  0  0  0
   25.3292    1.4332   -1.6139 N   0  0  0  0  0  0  0  0  0  0  0  0
   25.3996    0.3542    1.5025 H   0  0  0  0  0  0  0  0  0  0  0  0
   26.9865    2.2408   -2.6787 H   0  0  0  0  0  0  0  0  0  0  0  0
  -24.4227   -2.5134   -3.8634 H   0  0  0  0  0  0  0  0  0  0  0  0
   28.5279    1.9980   -0.8335 H   0  0  0  0  0  0  0  0  0  0  0  0
  1  2  2  0
  2  3  1  0
  3  4  2  0
  4  5  1  0
  5  6  2  0
  6  7  1  0
  7  8  2  0
  8  9  1  0
  9 10  2  0
 10 11  1  0
 11 12  2  0
 12 13  1  0
 13 14  2  0
 14 15  1  0
 15 16  2  0
 14  1  1  0
 15  4  1  0
 16  7  1  0
 16 11  1  0
  2 17  1  0
  3 18  1  0
  5 19  1  0
  6 20  1  0
  9 21  1  0
 10 22  1  0
 12 23  1  0
 13 24  1  0
 25 26  2  0
 26 27  2  0
 26 28  1  0
 28 29  2  0
 29 30  1  0
 30 31  2  0
 31 32  1  0
 32 33  2  0
 33 34  1  0
 34 35  2  0
 35 36  1  0
 36 37  2  0
 37 38  1  0
 38 39  2  0
 39 26  1  0
 33 28  1  0
 39 34  1  0
 29 40  1  0
 31 41  1  0
 32 42  1  0
 35 43  1  0
 36 44  1  0
 38 45  1  0
 46 47  2  0
 47 48  2  0
 47 49  1  0
 49 50  2  0
 50 51  1  0
 51 52  2  0
 52 53  1  0
 53 54  2  0
 54 55  1  0
 55 56  2  0
 56 57  1  0
 57 58  2  0
 58 59  1  0
 59 60  2  0
 60 47  1  0
 54 49  1  0
 60 55  1  0
 50 61  1  0
 52 62  1  0
 53 63  1  0
 56 64  1  0
 57 65  1  0
 59 66  1  0
 67 68  2  0
 68 69  1  0
 69 70  2  0
 70 71  1  0
 71 72  2  0
 72 67  1  0
 68 73  1  0
 71 74  1  0
 75 76  2  0
 76 77  1  0
 77 78  2  0
 78 79  1  0
 79 80  2  0
 80 81  1  0
 81 82  2  0
 82 83  1  0
 83 84  2  0
 84 85  1  0
 85 86  2  0
 86 87  1  0
 87 88  2  0
 88 89  1  0
 89 90  2  0
 88 75  1  0
 89 78  1  0
 90 81  1  0
 90 85  1  0
 76 91  1  0
 77 92  1  0
 79 93  1  0
 80 94  1  0
 83 95  1  0
 84 96  1  0
 86 97  1  0
 87 98  1  0
 99100  2  0
100101  2  0
100102  1  0
102103  2  0
103104  1  0
104105  2  0
105106  1  0
106107  2  0
107108  1  0
108109  2  0
109110  1  0
110111  2  0
111112  1  0
112113  2  0
113100  1  0
107102  1  0
113108  1  0
103114  1  0
105115  1  0
106116  1  0
109117  1  0
110118  1  0
112119  1  0
120121  2  0
121122  2  0
121123  1  0
123124  2  0
124125  1  0
125126  2  0
126127  1  0
127128  2  0
128129  1  0
129130  2  0
130131  1  0
131132  2  0
132133  1  0
133134  2  0
134121  1  0
128123  1  0
134129  1  0
124135  1  0
126136  1  0
127137  1  0
130138  1  0
131139  1  0
133140  1  0
141142  2  0
142143  1  0
143144  2  0
144145  1  0
145146  2  0
146141  1  0
142147  1  0
145148  1  0
  8 30  1  0
 37 51  1  0
 58 67  1  0
 70 75  1  0
 82104  1  0
111125  1  0
132141  1  0
  1149  1  0
144150  1  0
M  END
