150

C        -23.41400       -2.35640       -3.48740
C        -22.34850       -2.53110       -4.38220
C        -21.07640       -2.34280       -3.94710
C        -20.83240       -1.97920       -2.62500
C        -19.52280       -1.81020       -2.25670
C        -19.28210       -1.44850       -0.92730
C        -20.27610       -1.26120       -0.00200
C        -19.98170       -0.91420        1.29910
C        -21.01890       -0.75700        2.16420
C        -22.34720       -0.94430        1.73510
C        -22.64100       -1.29080        0.43350
C        -23.94610       -1.48800       -0.02250
C        -24.22290       -1.83590       -1.31060
C        -23.15260       -1.99720       -2.18500
C        -21.87360       -1.80330       -1.73090
C        -21.57320       -1.44830       -0.43820
H        -22.49520       -2.81320       -5.42070
H        -20.25370       -2.48310       -4.63810
H        -18.68450       -1.93570       -2.91490
H        -18.26800       -1.32170       -0.63470
H        -20.83170       -0.48840        3.18650
H        -23.14290       -0.81420        2.43340
H        -24.74640       -1.35390        0.69740
H        -25.23400       -1.98520       -1.64610
O        -15.32050        2.08860       -0.24810
S        -15.45150        1.85010        1.21120
O        -15.80830        3.10780        1.96050
C        -16.54800        0.55340        1.59800
C        -17.86400        0.39150        1.29350
C        -18.61210       -0.71210        1.69920
C        -17.90250       -1.63800        2.44850
C        -16.57670       -1.46720        2.75030
C        -15.86280       -0.34910        2.32050
C        -14.45910       -0.05500        2.50180
C        -13.46430       -0.81080        3.14160
C        -12.14660       -0.40460        3.16490
C        -11.73320        0.75880        2.56610
C        -12.69240        1.51620        1.93740
C        -14.02680        1.09890        1.91650
H        -18.41070        1.12770        0.70360
H        -18.45740       -2.51940        2.79270
H        -16.10270       -2.26090        3.35290
H        -13.72250       -1.75170        3.64140
H        -11.37380       -1.00210        3.66700
H        -12.41780        2.43340        1.45680
O         -6.59230       -1.41020        1.08600
S         -6.58830       -0.50050        2.26550
O         -6.33860       -1.25380        3.54120
C         -7.99080        0.51650        2.36480
C         -9.31480        0.19980        2.44170
C        -10.32560        1.16260        2.52460
C         -9.89190        2.46350        2.52640
C         -8.55310        2.77910        2.44850
C         -7.57030        1.79850        2.36370
C         -6.14190        1.96570        2.20620
C         -5.38630        3.14520        2.11590
C         -4.02280        3.12290        1.91000
C         -3.32400        1.95410        1.78260
C         -4.05170        0.78800        1.87180
C         -5.42760        0.80850        2.08010
H         -9.64840       -0.84810        2.44030
H        -10.64860        3.25100        2.58830
H         -8.28800        3.84970        2.45570
H         -5.88510        4.11630        2.21230
H         -3.46680        4.05840        1.84480
H         -3.56290       -0.18560        1.77960
C         -1.87890        1.87020        1.54690
C         -1.02570        2.92650        1.50010
N          0.29220        2.75990        1.26850
C          0.85000        1.55320        1.07050
C         -0.05900        0.48720        1.12850
N         -1.35790        0.64950        1.35470
H         -1.45220        3.92340        1.65910
H          0.37780       -0.50730        1.00620
C          2.27430        1.37120        0.94690
C          3.08400        1.99760        1.86110
C          4.43360        1.80020        1.78960
C          5.01470        0.99340        0.82800
C          6.38380        0.81090        0.80810
C          6.93670       -0.01400       -0.15800
C          6.14390       -0.65000       -1.09630
C          6.72550       -1.46370       -2.07330
C          5.96290       -2.07980       -3.01810
C          4.58820       -1.86280       -2.96330
C          4.01160       -1.06380       -2.00130
C          2.64690       -0.88040       -1.98000
C          2.09680       -0.07370       -0.99330
C          2.81870        0.56940       -0.02310
C          4.20850        0.37290       -0.08800
C          4.79080       -0.43460       -1.03430
H          2.63400        2.62870        2.60830
H          5.06920        2.29230        2.50780
H          7.01860        1.29610        1.53270
H          7.99700       -0.18620       -0.19880
H          6.41100       -2.70950       -3.77590
H          3.99520       -2.35920       -3.72100
H          2.02180       -1.35780       -2.72330
H          1.04160        0.06080       -1.05730
O         11.58540        1.57880       -2.58700
S         11.71520        0.15420       -2.98320
O         11.86160       -0.01250       -4.47120
C         10.38120       -0.83270       -2.38920
C          9.00530       -0.70190       -2.55350
C          8.18010       -1.63330       -1.98700
C          8.72750       -2.66670       -1.27980
C         10.07610       -2.78460       -1.12460
C         10.97150       -1.85150       -1.68280
C         12.39170       -1.77550       -1.55080
C         13.25760       -2.61780       -0.82170
C         14.58420       -2.38520       -0.70400
C         15.16500       -1.29120       -1.30560
C         14.35570       -0.45050       -2.02850
C         12.98690       -0.69370       -2.14670
H          8.66070        0.14070       -3.13000
H          8.05430       -3.38570       -0.84840
H         10.47490       -3.63770       -0.54680
H         12.86850       -3.50200       -0.32290
H         15.20460       -3.07790       -0.11890
H         14.77150        0.40700       -2.51130
O         19.72910        1.89190       -2.96190
S         20.00530        0.44850       -2.65540
O         20.36490       -0.33700       -3.85840
C         18.74980       -0.25850       -1.68300
C         17.42180       -0.48800       -1.99800
C         16.58530       -1.06500       -1.06370
C         17.13050       -1.39080        0.16260
C         18.42590       -1.15670        0.44230
C         19.31300       -0.56780       -0.48350
C         20.70470       -0.24800       -0.35190
C         21.55320       -0.44310        0.75970
C         22.87380       -0.06480        0.69430
C         23.44730        0.50990       -0.41650
C         22.62170        0.70200       -1.50430
C         21.29510        0.32390       -1.44150
H         17.02890       -0.22010       -2.96890
H         16.51050       -1.84380        0.92810
H         18.81510       -1.43050        1.42430
H         21.15900       -0.89010        1.67290
H         23.50880       -0.22990        1.58190
H         23.00890        1.14270       -2.39470
C         24.85610        0.90400       -0.46280
C         25.73680        0.77290        0.57250
N         27.03820        1.16070        0.44410
C         27.50020        1.68910       -0.71360
C         26.60060        1.81940       -1.76110
N         25.32920        1.43320       -1.61390
H         25.39960        0.35420        1.50250
H         26.98650        2.24080       -2.67870
H        -24.42270       -2.51340       -3.86340
H         28.52790        1.99800       -0.83350
