156

O         24.74510       -0.12280        1.30630
S         24.23080       -1.14520        0.32950
O         23.95660       -2.47000        0.97510
C         25.25040       -1.27090       -1.07190
C         26.56300       -1.71240       -1.22090
C         27.17910       -1.68680       -2.44440
C         26.47510       -1.21460       -3.52320
C         25.18910       -0.78700       -3.35610
C         24.51360       -0.79300       -2.12820
C         23.17650       -0.39360       -1.80660
C         22.18430        0.09890       -2.69130
C         20.93890        0.39760       -2.20510
C         20.58570        0.24210       -0.87460
C         21.52770       -0.22860       -0.01440
C         22.79940       -0.53280       -0.50800
H         27.07990       -2.08610       -0.34320
H         26.91590       -1.17310       -4.51770
H         24.66180       -0.40820       -4.25520
H         22.38460        0.24520       -3.74310
H         20.19300        0.77210       -2.89120
H         21.32520       -0.37610        1.01720
N         17.00640        2.17460        3.46850
C         17.23240        1.78090        2.39630
C         17.53240        1.26430        1.07280
C         18.87900        1.03420        0.76490
C         19.18790        0.54120       -0.46670
C         18.18100        0.28310       -1.37210
C         16.88760        0.51280       -1.05380
C         16.51290        1.01900        0.19990
H         19.64600        1.25400        1.51370
H         18.45230       -0.11170       -2.35890
H         16.07870        0.31670       -1.74910
O         11.36730       -0.87240       -1.49230
S         11.50680       -0.65820       -0.00210
O         11.51950       -1.93140        0.74390
C         12.85920        0.38830        0.34430
C         14.23140        0.21310        0.14990
C         15.10600        1.22160        0.47790
C         14.62790        2.38400        0.99240
C         13.27850        2.52920        1.17410
C         12.33100        1.54090        0.85850
C         10.90700        1.57180        0.96600
C         10.09340        2.62020        1.44530
C          8.73650        2.51450        1.47990
C          8.12100        1.33850        1.02990
C          8.86460        0.29950        0.56000
C         10.24880        0.45460        0.54370
H         14.54660       -0.73400       -0.25780
H         15.29180        3.22730        1.25560
H         12.93410        3.47900        1.59290
H         10.52530        3.55250        1.79910
H          8.07210        3.29260        1.84220
H          8.46720       -0.63570        0.19220
C          6.66060        1.27310        0.98860
C          5.99650        2.26250        0.24070
C          4.64520        2.24110        0.12290
C          3.94040        1.22940        0.75180
C          2.56950        1.18760        0.64830
C          1.83300        0.20680        1.25350
C          2.47840       -0.76220        1.98600
C          1.72320       -1.75820        2.61300
C          2.37690       -2.70940        3.34700
C          3.74670       -2.72320        3.49020
C          4.50840       -1.75360        2.88010
C          5.87110       -1.71320        2.99310
C          6.58310       -0.71090        2.36430
C          5.96910        0.28020        1.60540
C          4.57930        0.24120        1.49480
C          3.87230       -0.78370        2.13490
H          6.58880        3.03860       -0.23570
H          4.06940        2.96810       -0.43650
H          2.02460        1.92860        0.08130
H          0.73910        0.18670        1.17310
H          1.81880       -3.49240        3.84610
H          4.25150       -3.50110        4.08580
H          6.39710       -2.48300        3.58350
H          7.64680       -0.67440        2.47090
O         -2.24470       -1.89820       -1.62510
S         -2.68310       -2.48160       -0.32930
O         -2.82520       -3.98520       -0.41570
C         -1.67970       -2.00030        1.01430
C         -0.33520       -2.14790        1.23830
C          0.28490       -1.70020        2.39290
C         -0.54090       -1.09510        3.31550
C         -1.88300       -0.94580        3.09350
C         -2.49710       -1.39690        1.92190
C         -3.86620       -1.26480        1.50970
C         -4.93180       -0.64330        2.18540
C         -6.17500       -0.54690        1.62430
C         -6.46910       -1.05950        0.34910
C         -5.44270       -1.65820       -0.29620
C         -4.17150       -1.76040        0.26820
H          0.31090       -2.63510        0.49310
H         -0.11670       -0.72480        4.25990
H         -2.47520       -0.44400        3.88530
H         -4.78000       -0.21820        3.19000
H         -6.99150       -0.07090        2.15320
H         -5.59060       -2.07760       -1.28610
N        -11.13190        2.64830        0.45610
C        -10.56690        1.66290        0.16570
C         -9.84800        0.46700       -0.19670
C         -8.54810        0.24980        0.19190
C         -7.83220       -0.89530       -0.17300
C         -8.47880       -1.81400       -0.95150
C         -9.79790       -1.59340       -1.34510
C        -10.50170       -0.48290       -0.98790
H         -8.02580        0.96770        0.80260
H         -7.92410       -2.70550       -1.24070
H        -10.30270       -2.32960       -1.96620
O        -15.70130       -0.87450        1.36270
S        -15.48860        0.39980        0.58560
O        -15.26820        1.58080        1.44620
C        -14.14020        0.12710       -0.53390
C        -12.80390       -0.08200       -0.24210
C        -11.92640       -0.28760       -1.32380
C        -12.44290       -0.26990       -2.57080
C        -13.78500       -0.05780       -2.84520
C        -14.68390        0.15350       -1.77090
C        -16.09180        0.41800       -1.84430
C        -16.94500        0.55710       -2.94090
C        -18.26570        0.85300       -2.83810
C        -18.85040        1.03790       -1.61160
C        -18.04420        0.90950       -0.46880
C        -16.71460        0.60970       -0.63310
H        -12.45150       -0.09940        0.75080
H        -11.73360       -0.43570       -3.40600
H        -14.10750       -0.06160       -3.86000
H        -16.54730        0.41270       -3.94110
H        -18.87620        0.95000       -3.72030
H        -18.47530        1.03890        0.52410
C        -20.21320        1.45020       -1.38050
C        -20.57130        2.76670       -1.55850
C        -21.85500        3.22470       -1.29610
C        -22.81900        2.34280       -0.84070
C        -24.09640        2.83700       -0.59370
C        -25.04150        1.94490       -0.15260
C        -24.74340        0.61950        0.03860
C        -25.73760       -0.22310        0.47970
C        -25.46570       -1.57170        0.67990
C        -24.19660       -2.01240        0.42370
C        -23.18920       -1.16650       -0.02250
C        -21.91960       -1.63430       -0.27720
C        -20.94860       -0.76010       -0.72090
C        -21.16960        0.58660       -0.93250
C        -22.47300        1.02500       -0.66170
C        -23.45550        0.17010       -0.21960
H        -19.79550        3.43480       -1.91420
H        -22.12880        4.26330       -1.43610
H        -24.29320        3.88690       -0.75850
H        -26.04160        2.32220        0.04820
H        -26.25800       -2.21040        1.02310
H        -23.99530       -3.07790        0.58050
H        -21.69860       -2.69580       -0.12440
H        -19.94640       -1.13250       -0.91780
H         28.19150       -2.03090       -2.57590
H        -26.73210        0.14330        0.67180
