156

O        -20.56520       -3.48910       -3.65250
S        -20.92310       -2.52040       -2.55220
O        -20.99010       -1.12230       -3.03100
C        -22.41720       -3.03410       -1.76160
C        -23.71140       -3.15850       -2.25960
C        -24.69820       -3.58870       -1.40760
C        -24.39140       -3.88060       -0.10660
C        -23.11590       -3.75110        0.35660
C        -22.06090       -3.31520       -0.46880
C        -20.68040       -3.14200       -0.15080
C        -20.00790       -3.36860        1.05700
C        -18.66120       -3.18300        1.21480
C        -17.90430       -2.75620        0.16390
C        -18.52580       -2.51660       -1.04930
C        -19.88150       -2.71430       -1.17280
H        -23.88020       -2.90870       -3.29830
H        -25.18190       -4.21570        0.54580
H        -22.94190       -4.00050        1.40420
H        -20.54870       -3.70520        1.92620
H        -18.16450       -3.36880        2.17220
H        -17.95480       -2.17760       -1.88490
C        -16.45630       -2.64870        0.26750
C        -15.74270       -3.84610        0.49600
C        -14.37640       -3.80050        0.51720
C        -13.74150       -2.57380        0.31380
C        -12.36510       -2.51480        0.31890
C        -11.71500       -1.31060        0.10770
C        -12.38710       -0.12550       -0.11630
C        -11.72620        1.08990       -0.31600
C        -12.44270        2.27000       -0.51550
C        -13.80590        2.20300       -0.51480
C        -14.46310        0.98190       -0.31890
C        -15.83450        0.94120       -0.33010
C        -16.50050       -0.26990       -0.13790
C        -15.82560       -1.45200        0.07180
C        -14.42790       -1.40740        0.09380
C        -13.77000       -0.19290       -0.11840
H        -16.31320       -4.75500        0.64510
H        -13.79630       -4.71610        0.69420
H        -11.81090       -3.43910        0.49120
H        -10.63110       -1.28910        0.13980
H        -11.95500        3.20780       -0.66350
H        -14.42670        3.09380       -0.66770
H        -16.38700        1.85950       -0.49170
H        -17.57560       -0.27230       -0.14840
C        -10.27860        1.10210       -0.46190
C         -9.77810        0.33330       -1.52530
C         -8.43230        0.35250       -1.76520
C         -7.56790        1.09900       -0.99780
C         -6.21340        1.10610       -1.23600
C         -5.33280        1.84600       -0.46670
C         -5.76440        2.62130        0.58470
C         -4.89900        3.33660        1.36060
C         -5.43170        4.06690        2.43040
C         -6.77830        4.07100        2.69080
C         -7.63710        3.34060        1.88690
C         -8.99320        3.31480        2.13070
C         -9.86090        2.58510        1.35590
C         -9.40060        1.83310        0.28340
C         -8.01850        1.86740        0.05430
C         -7.15260        2.61020        0.82900
H        -10.43130       -0.26240       -2.14940
H         -7.97050       -0.21720       -2.57590
H         -5.82130        0.50350       -2.06640
H         -4.26910        1.76940       -0.67360
H         -4.79720        4.65620        3.08880
H         -7.23410        4.62430        3.51210
H         -9.35520        3.89480        2.96610
H        -10.92370        2.55880        1.55170
C         -3.47090        3.35670        1.20640
C         -2.74040        3.52140        0.07190
N         -1.40930        3.57140        0.08950
C         -0.67900        3.46720        1.21760
C         -1.42050        3.30520        2.37050
N         -2.74840        3.25170        2.37270
H         -3.22730        3.65760       -0.86900
H         -0.92570        3.21430        3.33160
O          3.76280        2.34530       -2.32200
S          3.96810        3.49800       -1.38510
O          3.94060        4.82470       -2.08390
C          2.84410        3.46110       -0.04280
C          1.44820        3.51200       -0.01650
C          0.77720        3.46340        1.19330
C          1.53380        3.37050        2.31250
C          2.88740        3.32130        2.29690
C          3.60570        3.36440        1.08110
C          5.03300        3.26830        0.86160
C          6.06410        3.11280        1.81320
C          7.36020        2.99030        1.41790
C          7.77100        3.00810        0.07770
C          6.77200        3.16030       -0.83740
C          5.43530        3.28700       -0.43800
H          0.93320        3.59050       -0.94690
H          1.04020        3.33510        3.28360
H          3.43020        3.24500        3.23930
H          5.79480        3.09470        2.87910
H          8.14750        2.87160        2.16240
H          7.00110        3.18430       -1.88180
C          9.19250        2.82860       -0.22880
C          9.85330        3.88680       -0.83100
C         11.21240        3.84320       -1.05120
C         11.92020        2.73210       -0.66650
C         13.28190        2.71720       -0.86920
C         13.97910        1.61040       -0.45600
C         13.36190        0.50550        0.15950
C         14.04130       -0.60240        0.57070
C         13.40020       -1.67190        1.15320
C         12.04730       -1.64480        1.34060
C         11.32640       -0.53770        0.94250
C          9.97140       -0.45460        1.12490
C          9.24970        0.67950        0.73030
C          9.90620        1.72250        0.14750
C         11.27040        1.65800       -0.06190
C         11.98580        0.53070        0.35640
H          9.26410        4.76160       -1.12760
H         11.74430        4.65680       -1.51830
H         13.81090        3.54060       -1.33990
H         15.06840        1.54780       -0.61490
H         13.99470       -2.56520        1.47150
H         11.53170       -2.47770        1.79610
H          9.46820       -1.29900        1.58420
H          8.17110        0.67180        0.89500
C         15.51350       -0.57380        0.54290
C         16.16120        0.37710        1.30430
C         17.51890        0.33370        1.42020
C         18.23680       -0.65180        0.78150
C         19.60020       -0.73230        0.89690
C         20.29880       -1.75360        0.25360
C         19.68730       -2.71250       -0.51180
C         20.41380       -3.70430       -1.14530
C         19.67130       -4.61470       -1.91680
C         18.30780       -4.54690       -2.04720
C         17.61700       -3.54460       -1.39670
C         16.24380       -3.51690       -1.54510
C         15.55540       -2.53200       -0.89950
C         16.18770       -1.55840       -0.10460
C         17.57830       -1.60320        0.01520
C         18.28720       -2.61610       -0.62270
H         15.56960        1.17530        1.81640
H         18.04940        1.07440        2.01660
H         20.10620        0.01200        1.49200
H         21.35360       -1.74930        0.36960
H         20.17500       -5.40580       -2.41170
H         17.75280       -5.26250       -2.65110
H         15.70520       -4.23610       -2.14610
H         14.45830       -2.45250       -0.99360
C         21.84510       -3.85460       -1.04680
C         22.49510       -4.61220       -2.03730
N         23.83630       -4.78800       -2.02260
C         24.61310       -4.25920       -1.07960
C         23.99500       -3.51550       -0.10470
N         22.67440       -3.35240       -0.13500
H         21.96810       -5.06840       -2.84840
H         24.57730       -3.07390        0.67230
H        -25.70020       -3.68290       -1.81360
H         25.68860       -4.42180       -1.09430
