
     RDKit          3D

156179  0  0  0  0  0  0  0  0999 V2000
  -20.5652   -3.4891   -3.6525 O   0  0  0  0  0  0  0  0  0  0  0  0
  -20.9231   -2.5204   -2.5522 S   0  0  0  0  0  0  0  0  0  0  0  0
  -20.9901   -1.1223   -3.0310 O   0  0  0  0  0  0  0  0  0  0  0  0
  -22.4172   -3.0341   -1.7616 C   0  0  0  0  0  0  0  0  0  0  0  0
  -23.7114   -3.1585   -2.2596 C   0  0  0  0  0  0  0  0  0  0  0  0
  -24.6982   -3.5887   -1.4076 C   0  0  0  0  0  0  0  0  0  0  0  0
  -24.3914   -3.8806   -0.1066 C   0  0  0  0  0  0  0  0  0  0  0  0
  -23.1159   -3.7511    0.3566 C   0  0  0  0  0  0  0  0  0  0  0  0
  -22.0609   -3.3152   -0.4688 C   0  0  0  0  0  0  0  0  0  0  0  0
  -20.6804   -3.1420   -0.1508 C   0  0  0  0  0  0  0  0  0  0  0  0
  -20.0079   -3.3686    1.0570 C   0  0  0  0  0  0  0  0  0  0  0  0
  -18.6612   -3.1830    1.2148 C   0  0  0  0  0  0  0  0  0  0  0  0
  -17.9043   -2.7562    0.1639 C   0  0  0  0  0  0  0  0  0  0  0  0
  -18.5258   -2.5166   -1.0493 C   0  0  0  0  0  0  0  0  0  0  0  0
  -19.8815   -2.7143   -1.1728 C   0  0  0  0  0  0  0  0  0  0  0  0
  -23.8802   -2.9087   -3.2983 H   0  0  0  0  0  0  0  0  0  0  0  0
  -25.1819   -4.2157    0.5458 H   0  0  0  0  0  0  0  0  0  0  0  0
  -22.9419   -4.0005    1.4042 H   0  0  0  0  0  0  0  0  0  0  0  0
  -20.5487   -3.7052    1.9262 H   0  0  0  0  0  0  0  0  0  0  0  0
  -18.1645   -3.3688    2.1722 H   0  0  0  0  0  0  0  0  0  0  0  0
  -17.9548   -2.1776   -1.8849 H   0  0  0  0  0  0  0  0  0  0  0  0
  -16.4563   -2.6487    0.2675 C   0  0  0  0  0  0  0  0  0  0  0  0
  -15.7427   -3.8461    0.4960 C   0  0  0  0  0  0  0  0  0  0  0  0
  -14.3764   -3.8005    0.5172 C   0  0  0  0  0  0  0  0  0  0  0  0
  -13.7415   -2.5738    0.3138 C   0  0  0  0  0  0  0  0  0  0  0  0
  -12.3651   -2.5148    0.3189 C   0  0  0  0  0  0  0  0  0  0  0  0
  -11.7150   -1.3106    0.1077 C   0  0  0  0  0  0  0  0  0  0  0  0
  -12.3871   -0.1255   -0.1163 C   0  0  0  0  0  0  0  0  0  0  0  0
  -11.7262    1.0899   -0.3160 C   0  0  0  0  0  0  0  0  0  0  0  0
  -12.4427    2.2700   -0.5155 C   0  0  0  0  0  0  0  0  0  0  0  0
  -13.8059    2.2030   -0.5148 C   0  0  0  0  0  0  0  0  0  0  0  0
  -14.4631    0.9819   -0.3189 C   0  0  0  0  0  0  0  0  0  0  0  0
  -15.8345    0.9412   -0.3301 C   0  0  0  0  0  0  0  0  0  0  0  0
  -16.5005   -0.2699   -0.1379 C   0  0  0  0  0  0  0  0  0  0  0  0
  -15.8256   -1.4520    0.0718 C   0  0  0  0  0  0  0  0  0  0  0  0
  -14.4279   -1.4074    0.0938 C   0  0  0  0  0  0  0  0  0  0  0  0
  -13.7700   -0.1929   -0.1184 C   0  0  0  0  0  0  0  0  0  0  0  0
  -16.3132   -4.7550    0.6451 H   0  0  0  0  0  0  0  0  0  0  0  0
  -13.7963   -4.7161    0.6942 H   0  0  0  0  0  0  0  0  0  0  0  0
  -11.8109   -3.4391    0.4912 H   0  0  0  0  0  0  0  0  0  0  0  0
  -10.6311   -1.2891    0.1398 H   0  0  0  0  0  0  0  0  0  0  0  0
  -11.9550    3.2078   -0.6635 H   0  0  0  0  0  0  0  0  0  0  0  0
  -14.4267    3.0938   -0.6677 H   0  0  0  0  0  0  0  0  0  0  0  0
  -16.3870    1.8595   -0.4917 H   0  0  0  0  0  0  0  0  0  0  0  0
  -17.5756   -0.2723   -0.1484 H   0  0  0  0  0  0  0  0  0  0  0  0
  -10.2786    1.1021   -0.4619 C   0  0  0  0  0  0  0  0  0  0  0  0
   -9.7781    0.3333   -1.5253 C   0  0  0  0  0  0  0  0  0  0  0  0
   -8.4323    0.3525   -1.7652 C   0  0  0  0  0  0  0  0  0  0  0  0
   -7.5679    1.0990   -0.9978 C   0  0  0  0  0  0  0  0  0  0  0  0
   -6.2134    1.1061   -1.2360 C   0  0  0  0  0  0  0  0  0  0  0  0
   -5.3328    1.8460   -0.4667 C   0  0  0  0  0  0  0  0  0  0  0  0
   -5.7644    2.6213    0.5847 C   0  0  0  0  0  0  0  0  0  0  0  0
   -4.8990    3.3366    1.3606 C   0  0  0  0  0  0  0  0  0  0  0  0
   -5.4317    4.0669    2.4304 C   0  0  0  0  0  0  0  0  0  0  0  0
   -6.7783    4.0710    2.6908 C   0  0  0  0  0  0  0  0  0  0  0  0
   -7.6371    3.3406    1.8869 C   0  0  0  0  0  0  0  0  0  0  0  0
   -8.9932    3.3148    2.1307 C   0  0  0  0  0  0  0  0  0  0  0  0
   -9.8609    2.5851    1.3559 C   0  0  0  0  0  0  0  0  0  0  0  0
   -9.4006    1.8331    0.2834 C   0  0  0  0  0  0  0  0  0  0  0  0
   -8.0185    1.8674    0.0543 C   0  0  0  0  0  0  0  0  0  0  0  0
   -7.1526    2.6102    0.8290 C   0  0  0  0  0  0  0  0  0  0  0  0
  -10.4313   -0.2624   -2.1494 H   0  0  0  0  0  0  0  0  0  0  0  0
   -7.9705   -0.2172   -2.5759 H   0  0  0  0  0  0  0  0  0  0  0  0
   -5.8213    0.5035   -2.0664 H   0  0  0  0  0  0  0  0  0  0  0  0
   -4.2691    1.7694   -0.6736 H   0  0  0  0  0  0  0  0  0  0  0  0
   -4.7972    4.6562    3.0888 H   0  0  0  0  0  0  0  0  0  0  0  0
   -7.2341    4.6243    3.5121 H   0  0  0  0  0  0  0  0  0  0  0  0
   -9.3552    3.8948    2.9661 H   0  0  0  0  0  0  0  0  0  0  0  0
  -10.9237    2.5588    1.5517 H   0  0  0  0  0  0  0  0  0  0  0  0
   -3.4709    3.3567    1.2064 C   0  0  0  0  0  0  0  0  0  0  0  0
   -2.7404    3.5214    0.0719 C   0  0  0  0  0  0  0  0  0  0  0  0
   -1.4093    3.5714    0.0895 N   0  0  0  0  0  0  0  0  0  0  0  0
   -0.6790    3.4672    1.2176 C   0  0  0  0  0  0  0  0  0  0  0  0
   -1.4205    3.3052    2.3705 C   0  0  0  0  0  0  0  0  0  0  0  0
   -2.7484    3.2517    2.3727 N   0  0  0  0  0  0  0  0  0  0  0  0
   -3.2273    3.6576   -0.8690 H   0  0  0  0  0  0  0  0  0  0  0  0
   -0.9257    3.2143    3.3316 H   0  0  0  0  0  0  0  0  0  0  0  0
    3.7628    2.3453   -2.3220 O   0  0  0  0  0  0  0  0  0  0  0  0
    3.9681    3.4980   -1.3851 S   0  0  0  0  0  0  0  0  0  0  0  0
    3.9406    4.8247   -2.0839 O   0  0  0  0  0  0  0  0  0  0  0  0
    2.8441    3.4611   -0.0428 C   0  0  0  0  0  0  0  0  0  0  0  0
    1.4482    3.5120   -0.0165 C   0  0  0  0  0  0  0  0  0  0  0  0
    0.7772    3.4634    1.1933 C   0  0  0  0  0  0  0  0  0  0  0  0
    1.5338    3.3705    2.3125 C   0  0  0  0  0  0  0  0  0  0  0  0
    2.8874    3.3213    2.2969 C   0  0  0  0  0  0  0  0  0  0  0  0
    3.6057    3.3644    1.0811 C   0  0  0  0  0  0  0  0  0  0  0  0
    5.0330    3.2683    0.8616 C   0  0  0  0  0  0  0  0  0  0  0  0
    6.0641    3.1128    1.8132 C   0  0  0  0  0  0  0  0  0  0  0  0
    7.3602    2.9903    1.4179 C   0  0  0  0  0  0  0  0  0  0  0  0
    7.7710    3.0081    0.0777 C   0  0  0  0  0  0  0  0  0  0  0  0
    6.7720    3.1603   -0.8374 C   0  0  0  0  0  0  0  0  0  0  0  0
    5.4353    3.2870   -0.4380 C   0  0  0  0  0  0  0  0  0  0  0  0
    0.9332    3.5905   -0.9469 H   0  0  0  0  0  0  0  0  0  0  0  0
    1.0402    3.3351    3.2836 H   0  0  0  0  0  0  0  0  0  0  0  0
    3.4302    3.2450    3.2393 H   0  0  0  0  0  0  0  0  0  0  0  0
    5.7948    3.0947    2.8791 H   0  0  0  0  0  0  0  0  0  0  0  0
    8.1475    2.8716    2.1624 H   0  0  0  0  0  0  0  0  0  0  0  0
    7.0011    3.1843   -1.8818 H   0  0  0  0  0  0  0  0  0  0  0  0
    9.1925    2.8286   -0.2288 C   0  0  0  0  0  0  0  0  0  0  0  0
    9.8533    3.8868   -0.8310 C   0  0  0  0  0  0  0  0  0  0  0  0
   11.2124    3.8432   -1.0512 C   0  0  0  0  0  0  0  0  0  0  0  0
   11.9202    2.7321   -0.6665 C   0  0  0  0  0  0  0  0  0  0  0  0
   13.2819    2.7172   -0.8692 C   0  0  0  0  0  0  0  0  0  0  0  0
   13.9791    1.6104   -0.4560 C   0  0  0  0  0  0  0  0  0  0  0  0
   13.3619    0.5055    0.1595 C   0  0  0  0  0  0  0  0  0  0  0  0
   14.0413   -0.6024    0.5707 C   0  0  0  0  0  0  0  0  0  0  0  0
   13.4002   -1.6719    1.1532 C   0  0  0  0  0  0  0  0  0  0  0  0
   12.0473   -1.6448    1.3406 C   0  0  0  0  0  0  0  0  0  0  0  0
   11.3264   -0.5377    0.9425 C   0  0  0  0  0  0  0  0  0  0  0  0
    9.9714   -0.4546    1.1249 C   0  0  0  0  0  0  0  0  0  0  0  0
    9.2497    0.6795    0.7303 C   0  0  0  0  0  0  0  0  0  0  0  0
    9.9062    1.7225    0.1475 C   0  0  0  0  0  0  0  0  0  0  0  0
   11.2704    1.6580   -0.0619 C   0  0  0  0  0  0  0  0  0  0  0  0
   11.9858    0.5307    0.3564 C   0  0  0  0  0  0  0  0  0  0  0  0
    9.2641    4.7616   -1.1276 H   0  0  0  0  0  0  0  0  0  0  0  0
   11.7443    4.6568   -1.5183 H   0  0  0  0  0  0  0  0  0  0  0  0
   13.8109    3.5406   -1.3399 H   0  0  0  0  0  0  0  0  0  0  0  0
   15.0684    1.5478   -0.6149 H   0  0  0  0  0  0  0  0  0  0  0  0
   13.9947   -2.5652    1.4715 H   0  0  0  0  0  0  0  0  0  0  0  0
   11.5317   -2.4777    1.7961 H   0  0  0  0  0  0  0  0  0  0  0  0
    9.4682   -1.2990    1.5842 H   0  0  0  0  0  0  0  0  0  0  0  0
    8.1711    0.6718    0.8950 H   0  0  0  0  0  0  0  0  0  0  0  0
   15.5135   -0.5738    0.5429 C   0  0  0  0  0  0  0  0  0  0  0  0
   16.1612    0.3771    1.3043 C   0  0  0  0  0  0  0  0  0  0  0  0
   17.5189    0.3337    1.4202 C   0  0  0  0  0  0  0  0  0  0  0  0
   18.2368   -0.6518    0.7815 C   0  0  0  0  0  0  0  0  0  0  0  0
   19.6002   -0.7323    0.8969 C   0  0  0  0  0  0  0  0  0  0  0  0
   20.2988   -1.7536    0.2536 C   0  0  0  0  0  0  0  0  0  0  0  0
   19.6873   -2.7125   -0.5118 C   0  0  0  0  0  0  0  0  0  0  0  0
   20.4138   -3.7043   -1.1453 C   0  0  0  0  0  0  0  0  0  0  0  0
   19.6713   -4.6147   -1.9168 C   0  0  0  0  0  0  0  0  0  0  0  0
   18.3078   -4.5469   -2.0472 C   0  0  0  0  0  0  0  0  0  0  0  0
   17.6170   -3.5446   -1.3967 C   0  0  0  0  0  0  0  0  0  0  0  0
   16.2438   -3.5169   -1.5451 C   0  0  0  0  0  0  0  0  0  0  0  0
   15.5554   -2.5320   -0.8995 C   0  0  0  0  0  0  0  0  0  0  0  0
   16.1877   -1.5584   -0.1046 C   0  0  0  0  0  0  0  0  0  0  0  0
   17.5783   -1.6032    0.0152 C   0  0  0  0  0  0  0  0  0  0  0  0
   18.2872   -2.6161   -0.6227 C   0  0  0  0  0  0  0  0  0  0  0  0
   15.5696    1.1753    1.8164 H   0  0  0  0  0  0  0  0  0  0  0  0
   18.0494    1.0744    2.0166 H   0  0  0  0  0  0  0  0  0  0  0  0
   20.1062    0.0120    1.4920 H   0  0  0  0  0  0  0  0  0  0  0  0
   21.3536   -1.7493    0.3696 H   0  0  0  0  0  0  0  0  0  0  0  0
   20.1750   -5.4058   -2.4117 H   0  0  0  0  0  0  0  0  0  0  0  0
   17.7528   -5.2625   -2.6511 H   0  0  0  0  0  0  0  0  0  0  0  0
   15.7052   -4.2361   -2.1461 H   0  0  0  0  0  0  0  0  0  0  0  0
   14.4583   -2.4525   -0.9936 H   0  0  0  0  0  0  0  0  0  0  0  0
   21.8451   -3.8546   -1.0468 C   0  0  0  0  0  0  0  0  0  0  0  0
   22.4951   -4.6122   -2.0373 C   0  0  0  0  0  0  0  0  0  0  0  0
   23.8363   -4.7880   -2.0226 N   0  0  0  0  0  0  0  0  0  0  0  0
   24.6131   -4.2592   -1.0796 C   0  0  0  0  0  0  0  0  0  0  0  0
   23.9950   -3.5155   -0.1047 C   0  0  0  0  0  0  0  0  0  0  0  0
   22.6744   -3.3524   -0.1350 N   0  0  0  0  0  0  0  0  0  0  0  0
   21.9681   -5.0684   -2.8484 H   0  0  0  0  0  0  0  0  0  0  0  0
   24.5773   -3.0739    0.6723 H   0  0  0  0  0  0  0  0  0  0  0  0
  -25.7002   -3.6829   -1.8136 H   0  0  0  0  0  0  0  0  0  0  0  0
   25.6886   -4.4218   -1.0943 H   0  0  0  0  0  0  0  0  0  0  0  0
  1  2  2  0
  2  3  2  0
  2  4  1  0
  4  5  2  0
  5  6  1  0
  6  7  2  0
  7  8  1  0
  8  9  2  0
  9 10  1  0
 10 11  2  0
 11 12  1  0
 12 13  2  0
 13 14  1  0
 14 15  2  0
 15  2  1  0
  9  4  1  0
 15 10  1  0
  5 16  1  0
  7 17  1  0
  8 18  1  0
 11 19  1  0
 12 20  1  0
 14 21  1  0
 22 23  2  0
 23 24  1  0
 24 25  2  0
 25 26  1  0
 26 27  2  0
 27 28  1  0
 28 29  2  0
 29 30  1  0
 30 31  2  0
 31 32  1  0
 32 33  2  0
 33 34  1  0
 34 35  2  0
 35 36  1  0
 36 37  2  0
 35 22  1  0
 36 25  1  0
 37 28  1  0
 37 32  1  0
 23 38  1  0
 24 39  1  0
 26 40  1  0
 27 41  1  0
 30 42  1  0
 31 43  1  0
 33 44  1  0
 34 45  1  0
 46 47  2  0
 47 48  1  0
 48 49  2  0
 49 50  1  0
 50 51  2  0
 51 52  1  0
 52 53  2  0
 53 54  1  0
 54 55  2  0
 55 56  1  0
 56 57  2  0
 57 58  1  0
 58 59  2  0
 59 60  1  0
 60 61  2  0
 59 46  1  0
 60 49  1  0
 61 52  1  0
 61 56  1  0
 47 62  1  0
 48 63  1  0
 50 64  1  0
 51 65  1  0
 54 66  1  0
 55 67  1  0
 57 68  1  0
 58 69  1  0
 70 71  2  0
 71 72  1  0
 72 73  2  0
 73 74  1  0
 74 75  2  0
 75 70  1  0
 71 76  1  0
 74 77  1  0
 78 79  2  0
 79 80  2  0
 79 81  1  0
 81 82  2  0
 82 83  1  0
 83 84  2  0
 84 85  1  0
 85 86  2  0
 86 87  1  0
 87 88  2  0
 88 89  1  0
 89 90  2  0
 90 91  1  0
 91 92  2  0
 92 79  1  0
 86 81  1  0
 92 87  1  0
 82 93  1  0
 84 94  1  0
 85 95  1  0
 88 96  1  0
 89 97  1  0
 91 98  1  0
 99100  2  0
100101  1  0
101102  2  0
102103  1  0
103104  2  0
104105  1  0
105106  2  0
106107  1  0
107108  2  0
108109  1  0
109110  2  0
110111  1  0
111112  2  0
112113  1  0
113114  2  0
112 99  1  0
113102  1  0
114105  1  0
114109  1  0
100115  1  0
101116  1  0
103117  1  0
104118  1  0
107119  1  0
108120  1  0
110121  1  0
111122  1  0
123124  2  0
124125  1  0
125126  2  0
126127  1  0
127128  2  0
128129  1  0
129130  2  0
130131  1  0
131132  2  0
132133  1  0
133134  2  0
134135  1  0
135136  2  0
136137  1  0
137138  2  0
136123  1  0
137126  1  0
138129  1  0
138133  1  0
124139  1  0
125140  1  0
127141  1  0
128142  1  0
131143  1  0
132144  1  0
134145  1  0
135146  1  0
147148  2  0
148149  1  0
149150  2  0
150151  1  0
151152  2  0
152147  1  0
148153  1  0
151154  1  0
 13 22  1  0
 29 46  1  0
 53 70  1  0
 73 83  1  0
 90 99  1  0
106123  1  0
130147  1  0
  6155  1  0
150156  1  0
M  END
