
     RDKit          3D

 98111  0  0  0  0  0  0  0  0999 V2000
   17.6378    1.1475    0.0942 C   0  0  0  0  0  0  0  0  0  0  0  0
   17.3178    2.0191   -0.9530 C   0  0  0  0  0  0  0  0  0  0  0  0
   16.0020    2.0991   -1.3511 C   0  0  0  0  0  0  0  0  0  0  0  0
   14.9723    1.3725   -0.7813 C   0  0  0  0  0  0  0  0  0  0  0  0
   13.6724    1.4815   -1.2058 C   0  0  0  0  0  0  0  0  0  0  0  0
   12.6465    0.7463   -0.6226 C   0  0  0  0  0  0  0  0  0  0  0  0
   12.9392   -0.1085    0.4032 C   0  0  0  0  0  0  0  0  0  0  0  0
   11.9372   -0.8528    0.9623 C   0  0  0  0  0  0  0  0  0  0  0  0
   12.3183   -1.7462    1.9911 C   0  0  0  0  0  0  0  0  0  0  0  0
   13.6163   -1.8430    2.3943 C   0  0  0  0  0  0  0  0  0  0  0  0
   14.6333   -1.0971    1.8442 C   0  0  0  0  0  0  0  0  0  0  0  0
   15.9475   -1.2057    2.2595 C   0  0  0  0  0  0  0  0  0  0  0  0
   16.9478   -0.4485    1.6779 C   0  0  0  0  0  0  0  0  0  0  0  0
   16.6113    0.4268    0.6564 C   0  0  0  0  0  0  0  0  0  0  0  0
   15.3026    0.5007    0.2682 C   0  0  0  0  0  0  0  0  0  0  0  0
   14.2718   -0.2113    0.8242 C   0  0  0  0  0  0  0  0  0  0  0  0
   18.0588    2.6223   -1.4589 H   0  0  0  0  0  0  0  0  0  0  0  0
   15.7089    2.7672   -2.1822 H   0  0  0  0  0  0  0  0  0  0  0  0
   13.4088    2.1415   -2.0108 H   0  0  0  0  0  0  0  0  0  0  0  0
   11.6336    0.8374   -1.0042 H   0  0  0  0  0  0  0  0  0  0  0  0
   11.5437   -2.3470    2.4438 H   0  0  0  0  0  0  0  0  0  0  0  0
   13.8987   -2.5405    3.1978 H   0  0  0  0  0  0  0  0  0  0  0  0
   16.1950   -1.8912    3.0489 H   0  0  0  0  0  0  0  0  0  0  0  0
   17.9635   -0.5297    2.0048 H   0  0  0  0  0  0  0  0  0  0  0  0
   10.5261   -0.8141    0.5938 C   0  0  0  0  0  0  0  0  0  0  0  0
    9.7526    0.3194    0.5919 C   0  0  0  0  0  0  0  0  0  0  0  0
    8.4074    0.3163    0.3910 N   0  0  0  0  0  0  0  0  0  0  0  0
    7.7716   -0.8508    0.1796 C   0  0  0  0  0  0  0  0  0  0  0  0
    8.5256   -1.9994    0.1735 C   0  0  0  0  0  0  0  0  0  0  0  0
    9.8554   -1.9873    0.3735 N   0  0  0  0  0  0  0  0  0  0  0  0
   10.2193    1.2919    0.7745 H   0  0  0  0  0  0  0  0  0  0  0  0
    7.9983   -2.9313   -0.0095 H   0  0  0  0  0  0  0  0  0  0  0  0
    6.3126   -0.8634    0.0637 C   0  0  0  0  0  0  0  0  0  0  0  0
    5.5980    0.3142    0.2778 C   0  0  0  0  0  0  0  0  0  0  0  0
    4.2589    0.3493    0.2665 N   0  0  0  0  0  0  0  0  0  0  0  0
    3.5189   -0.7849    0.0406 C   0  0  0  0  0  0  0  0  0  0  0  0
    4.2354   -1.9347   -0.1705 C   0  0  0  0  0  0  0  0  0  0  0  0
    5.5999   -1.9756   -0.1591 N   0  0  0  0  0  0  0  0  0  0  0  0
    6.1898    1.2117    0.4525 H   0  0  0  0  0  0  0  0  0  0  0  0
    3.6676   -2.8626   -0.3577 H   0  0  0  0  0  0  0  0  0  0  0  0
    2.0759   -0.6972    0.1043 C   0  0  0  0  0  0  0  0  0  0  0  0
    1.4814    0.5402    0.4782 C   0  0  0  0  0  0  0  0  0  0  0  0
    0.1732    0.6473    0.6009 N   0  0  0  0  0  0  0  0  0  0  0  0
   -0.6880   -0.3754    0.3864 C   0  0  0  0  0  0  0  0  0  0  0  0
   -0.1410   -1.5792    0.0227 C   0  0  0  0  0  0  0  0  0  0  0  0
    1.1984   -1.6734   -0.0978 N   0  0  0  0  0  0  0  0  0  0  0  0
    2.1543    1.3626    0.6506 H   0  0  0  0  0  0  0  0  0  0  0  0
   -0.7346   -2.4671   -0.1580 H   0  0  0  0  0  0  0  0  0  0  0  0
   -2.0862   -0.1945    0.6507 C   0  0  0  0  0  0  0  0  0  0  0  0
   -2.4286    0.4094    1.8656 C   0  0  0  0  0  0  0  0  0  0  0  0
   -3.7122    0.6968    2.2058 C   0  0  0  0  0  0  0  0  0  0  0  0
   -4.7130    0.3759    1.3027 C   0  0  0  0  0  0  0  0  0  0  0  0
   -6.0173    0.6660    1.6164 C   0  0  0  0  0  0  0  0  0  0  0  0
   -7.0273    0.3779    0.7391 C   0  0  0  0  0  0  0  0  0  0  0  0
   -6.7869   -0.2049   -0.4826 C   0  0  0  0  0  0  0  0  0  0  0  0
   -7.8248   -0.4727   -1.3421 C   0  0  0  0  0  0  0  0  0  0  0  0
   -7.4849   -1.0799   -2.5686 C   0  0  0  0  0  0  0  0  0  0  0  0
   -6.1893   -1.3880   -2.8997 C   0  0  0  0  0  0  0  0  0  0  0  0
   -5.1716   -1.0901   -1.9950 C   0  0  0  0  0  0  0  0  0  0  0  0
   -3.8880   -1.3825   -2.3339 C   0  0  0  0  0  0  0  0  0  0  0  0
   -2.8756   -1.0794   -1.4420 C   0  0  0  0  0  0  0  0  0  0  0  0
   -3.0960   -0.5037   -0.2296 C   0  0  0  0  0  0  0  0  0  0  0  0
   -4.4305   -0.2124    0.1017 C   0  0  0  0  0  0  0  0  0  0  0  0
   -5.4580   -0.4972   -0.7800 C   0  0  0  0  0  0  0  0  0  0  0  0
   -1.6069    0.6535    2.5563 H   0  0  0  0  0  0  0  0  0  0  0  0
   -3.9537    1.1729    3.1657 H   0  0  0  0  0  0  0  0  0  0  0  0
   -6.2516    1.1313    2.5771 H   0  0  0  0  0  0  0  0  0  0  0  0
   -8.0311    0.5632    1.0623 H   0  0  0  0  0  0  0  0  0  0  0  0
   -8.2710   -1.3172   -3.2902 H   0  0  0  0  0  0  0  0  0  0  0  0
   -5.9120   -1.8539   -3.8359 H   0  0  0  0  0  0  0  0  0  0  0  0
   -3.6759   -1.8461   -3.2818 H   0  0  0  0  0  0  0  0  0  0  0  0
   -1.8908   -1.2941   -1.7624 H   0  0  0  0  0  0  0  0  0  0  0  0
   -9.2327   -0.2029   -1.1070 C   0  0  0  0  0  0  0  0  0  0  0  0
   -9.7103    0.9687   -0.5938 C   0  0  0  0  0  0  0  0  0  0  0  0
  -11.0536    1.1649   -0.4674 N   0  0  0  0  0  0  0  0  0  0  0  0
  -11.9330    0.2086   -0.8494 C   0  0  0  0  0  0  0  0  0  0  0  0
  -11.4266   -0.9524   -1.3656 C   0  0  0  0  0  0  0  0  0  0  0  0
  -10.1121   -1.1823   -1.5035 N   0  0  0  0  0  0  0  0  0  0  0  0
   -9.0348    1.7940   -0.3194 H   0  0  0  0  0  0  0  0  0  0  0  0
  -12.1401   -1.7263   -1.6850 H   0  0  0  0  0  0  0  0  0  0  0  0
  -13.3775    0.4469   -0.6373 C   0  0  0  0  0  0  0  0  0  0  0  0
  -13.7760    1.6165   -0.0004 C   0  0  0  0  0  0  0  0  0  0  0  0
  -15.0558    1.8594    0.2575 N   0  0  0  0  0  0  0  0  0  0  0  0
  -16.0429    0.9747   -0.0882 C   0  0  0  0  0  0  0  0  0  0  0  0
  -15.6226   -0.1666   -0.7138 C   0  0  0  0  0  0  0  0  0  0  0  0
  -14.3030   -0.4293   -0.9865 N   0  0  0  0  0  0  0  0  0  0  0  0
  -13.0228    2.3356    0.2836 H   0  0  0  0  0  0  0  0  0  0  0  0
  -16.3805   -0.9097   -1.0097 H   0  0  0  0  0  0  0  0  0  0  0  0
  -17.4349    1.2800    0.2263 C   0  0  0  0  0  0  0  0  0  0  0  0
  -18.5038    0.4878   -0.0912 C   0  0  0  0  0  0  0  0  0  0  0  0
  -19.7747    0.8606    0.2224 N   0  0  0  0  0  0  0  0  0  0  0  0
  -20.0064    2.0217    0.8545 C   0  0  0  0  0  0  0  0  0  0  0  0
  -18.9418    2.8342    1.1834 C   0  0  0  0  0  0  0  0  0  0  0  0
  -17.6715    2.4392    0.8578 N   0  0  0  0  0  0  0  0  0  0  0  0
  -18.3227   -0.4395   -0.5971 H   0  0  0  0  0  0  0  0  0  0  0  0
  -19.1087    3.7624    1.6892 H   0  0  0  0  0  0  0  0  0  0  0  0
   18.6720    1.1031    0.3894 H   0  0  0  0  0  0  0  0  0  0  0  0
  -21.0427    2.3234    1.1064 H   0  0  0  0  0  0  0  0  0  0  0  0
  1  2  2  0
  2  3  1  0
  3  4  2  0
  4  5  1  0
  5  6  2  0
  6  7  1  0
  7  8  2  0
  8  9  1  0
  9 10  2  0
 10 11  1  0
 11 12  2  0
 12 13  1  0
 13 14  2  0
 14 15  1  0
 15 16  2  0
 14  1  1  0
 15  4  1  0
 16  7  1  0
 16 11  1  0
  2 17  1  0
  3 18  1  0
  5 19  1  0
  6 20  1  0
  9 21  1  0
 10 22  1  0
 12 23  1  0
 13 24  1  0
 25 26  2  0
 26 27  1  0
 27 28  2  0
 28 29  1  0
 29 30  2  0
 30 25  1  0
 26 31  1  0
 29 32  1  0
 33 34  2  0
 34 35  1  0
 35 36  2  0
 36 37  1  0
 37 38  2  0
 38 33  1  0
 34 39  1  0
 37 40  1  0
 41 42  2  0
 42 43  1  0
 43 44  2  0
 44 45  1  0
 45 46  2  0
 46 41  1  0
 42 47  1  0
 45 48  1  0
 49 50  2  0
 50 51  1  0
 51 52  2  0
 52 53  1  0
 53 54  2  0
 54 55  1  0
 55 56  2  0
 56 57  1  0
 57 58  2  0
 58 59  1  0
 59 60  2  0
 60 61  1  0
 61 62  2  0
 62 63  1  0
 63 64  2  0
 62 49  1  0
 63 52  1  0
 64 55  1  0
 64 59  1  0
 50 65  1  0
 51 66  1  0
 53 67  1  0
 54 68  1  0
 57 69  1  0
 58 70  1  0
 60 71  1  0
 61 72  1  0
 73 74  2  0
 74 75  1  0
 75 76  2  0
 76 77  1  0
 77 78  2  0
 78 73  1  0
 74 79  1  0
 77 80  1  0
 81 82  2  0
 82 83  1  0
 83 84  2  0
 84 85  1  0
 85 86  2  0
 86 81  1  0
 82 87  1  0
 85 88  1  0
 89 90  2  0
 90 91  1  0
 91 92  2  0
 92 93  1  0
 93 94  2  0
 94 89  1  0
 90 95  1  0
 93 96  1  0
  8 25  1  0
 28 33  1  0
 36 41  1  0
 44 49  1  0
 56 73  1  0
 76 81  1  0
 84 89  1  0
  1 97  1  0
 92 98  1  0
M  END
