98

C         17.63780        1.14750        0.09420
C         17.31780        2.01910       -0.95300
C         16.00200        2.09910       -1.35110
C         14.97230        1.37250       -0.78130
C         13.67240        1.48150       -1.20580
C         12.64650        0.74630       -0.62260
C         12.93920       -0.10850        0.40320
C         11.93720       -0.85280        0.96230
C         12.31830       -1.74620        1.99110
C         13.61630       -1.84300        2.39430
C         14.63330       -1.09710        1.84420
C         15.94750       -1.20570        2.25950
C         16.94780       -0.44850        1.67790
C         16.61130        0.42680        0.65640
C         15.30260        0.50070        0.26820
C         14.27180       -0.21130        0.82420
H         18.05880        2.62230       -1.45890
H         15.70890        2.76720       -2.18220
H         13.40880        2.14150       -2.01080
H         11.63360        0.83740       -1.00420
H         11.54370       -2.34700        2.44380
H         13.89870       -2.54050        3.19780
H         16.19500       -1.89120        3.04890
H         17.96350       -0.52970        2.00480
C         10.52610       -0.81410        0.59380
C          9.75260        0.31940        0.59190
N          8.40740        0.31630        0.39100
C          7.77160       -0.85080        0.17960
C          8.52560       -1.99940        0.17350
N          9.85540       -1.98730        0.37350
H         10.21930        1.29190        0.77450
H          7.99830       -2.93130       -0.00950
C          6.31260       -0.86340        0.06370
C          5.59800        0.31420        0.27780
N          4.25890        0.34930        0.26650
C          3.51890       -0.78490        0.04060
C          4.23540       -1.93470       -0.17050
N          5.59990       -1.97560       -0.15910
H          6.18980        1.21170        0.45250
H          3.66760       -2.86260       -0.35770
C          2.07590       -0.69720        0.10430
C          1.48140        0.54020        0.47820
N          0.17320        0.64730        0.60090
C         -0.68800       -0.37540        0.38640
C         -0.14100       -1.57920        0.02270
N          1.19840       -1.67340       -0.09780
H          2.15430        1.36260        0.65060
H         -0.73460       -2.46710       -0.15800
C         -2.08620       -0.19450        0.65070
C         -2.42860        0.40940        1.86560
C         -3.71220        0.69680        2.20580
C         -4.71300        0.37590        1.30270
C         -6.01730        0.66600        1.61640
C         -7.02730        0.37790        0.73910
C         -6.78690       -0.20490       -0.48260
C         -7.82480       -0.47270       -1.34210
C         -7.48490       -1.07990       -2.56860
C         -6.18930       -1.38800       -2.89970
C         -5.17160       -1.09010       -1.99500
C         -3.88800       -1.38250       -2.33390
C         -2.87560       -1.07940       -1.44200
C         -3.09600       -0.50370       -0.22960
C         -4.43050       -0.21240        0.10170
C         -5.45800       -0.49720       -0.78000
H         -1.60690        0.65350        2.55630
H         -3.95370        1.17290        3.16570
H         -6.25160        1.13130        2.57710
H         -8.03110        0.56320        1.06230
H         -8.27100       -1.31720       -3.29020
H         -5.91200       -1.85390       -3.83590
H         -3.67590       -1.84610       -3.28180
H         -1.89080       -1.29410       -1.76240
C         -9.23270       -0.20290       -1.10700
C         -9.71030        0.96870       -0.59380
N        -11.05360        1.16490       -0.46740
C        -11.93300        0.20860       -0.84940
C        -11.42660       -0.95240       -1.36560
N        -10.11210       -1.18230       -1.50350
H         -9.03480        1.79400       -0.31940
H        -12.14010       -1.72630       -1.68500
C        -13.37750        0.44690       -0.63730
C        -13.77600        1.61650       -0.00040
N        -15.05580        1.85940        0.25750
C        -16.04290        0.97470       -0.08820
C        -15.62260       -0.16660       -0.71380
N        -14.30300       -0.42930       -0.98650
H        -13.02280        2.33560        0.28360
H        -16.38050       -0.90970       -1.00970
C        -17.43490        1.28000        0.22630
C        -18.50380        0.48780       -0.09120
N        -19.77470        0.86060        0.22240
C        -20.00640        2.02170        0.85450
C        -18.94180        2.83420        1.18340
N        -17.67150        2.43920        0.85780
H        -18.32270       -0.43950       -0.59710
H        -19.10870        3.76240        1.68920
H         18.67200        1.10310        0.38940
H        -21.04270        2.32340        1.10640
