130

O         20.48370        2.10950        3.29690
S         20.81730        0.82060        2.64710
O         20.72650       -0.34550        3.58870
C         22.33660        0.85310        1.79390
C         23.63450        1.02250        2.26530
C         24.70490        1.01570        1.39840
C         24.44110        0.83540        0.05270
C         23.17310        0.67390       -0.37340
C         22.05000        0.67450        0.48230
C         20.64400        0.51210        0.16490
C         20.03650        0.30680       -1.09060
C         18.67580        0.16950       -1.18960
C         17.83020        0.22000       -0.10740
C         18.41860        0.41990        1.11540
C         19.79790        0.56040        1.22770
H         23.76850        1.15970        3.32560
H         25.25920        0.82380       -0.67300
H         23.00830        0.53790       -1.43230
H         20.65610        0.25890       -1.98550
H         18.21580        0.01030       -2.16940
H         17.83550        0.47300        2.01450
N         12.97030        1.07840       -3.53710
C         13.54790        0.73140       -2.59410
C         14.28340        0.30480       -1.42370
C         15.66090        0.45820       -1.34930
C         16.37770        0.06460       -0.24540
C         15.67180       -0.49360        0.79410
C         14.31120       -0.66010        0.75510
C         13.59260       -0.25620       -0.37200
H         16.18230        0.89980       -2.17970
H         16.21890       -0.81860        1.68850
H         13.73710       -1.10250        1.57220
O          8.48710        2.55390       -0.07600
S          8.58400        1.23640        0.63540
O          8.53870        1.36920        2.10640
C          9.89910        0.26980        0.04780
C         11.25450        0.48310        0.11530
C         12.15140       -0.42630       -0.43620
C         11.62160       -1.52090       -1.03730
C         10.28280       -1.71990       -1.09760
C          9.34630       -0.82760       -0.55320
C          7.91440       -0.88130       -0.51970
C          7.05990       -1.87460       -1.03430
C          5.69570       -1.77330       -0.90350
C          5.09280       -0.71700       -0.27460
C          5.91030        0.26640        0.23590
C          7.28580        0.15460        0.09860
H         11.65610        1.36260        0.59810
H         12.29750       -2.25900       -1.48160
H          9.93970       -2.62890       -1.60030
H          7.48240       -2.74590       -1.54680
H          5.02680       -2.54760       -1.30450
H          5.50600        1.11630        0.73640
N          0.79680        1.34640        3.29180
C          1.20770        0.83960        2.31950
C          1.73690        0.18990        1.13320
C          3.09680        0.04050        0.97580
C          3.62090       -0.59130       -0.12550
C          2.75280       -1.07630       -1.07480
C          1.39830       -0.92720       -0.91860
C          0.85890       -0.28310        0.20050
H          3.76250        0.42560        1.72430
H          3.18380       -1.57980       -1.95080
H          0.74210       -1.31740       -1.67560
O         -4.12350       -2.83760       -1.33840
S         -4.12850       -2.20170        0.01950
O         -4.11430       -3.22000        1.12430
C         -2.82370       -1.04470        0.19370
C         -1.43450       -1.19410        0.12540
C         -0.59600       -0.12410        0.29390
C         -1.18130        1.09410        0.53100
C         -2.55040        1.24510        0.59970
C         -3.42050        0.16100        0.42950
C         -4.86380        0.14490        0.45040
C         -5.74910        1.21220        0.65320
C         -7.10460        1.04040        0.62910
C         -7.67970       -0.20680        0.40170
C         -6.78330       -1.23100        0.20810
C         -5.42420       -1.05920        0.23200
H         -1.03970       -2.18990       -0.06610
H         -0.51270        1.96070        0.65390
H         -2.94440        2.25440        0.79630
H         -5.37010        2.22930        0.84070
H         -7.80560        1.85720        0.78440
H         -7.22170       -2.22620        0.02680
N        -12.05930       -3.27170       -2.18620
C        -11.61900       -2.46920       -1.44510
C        -11.06730       -1.47780       -0.56660
C         -9.68000       -1.31270       -0.45720
C         -9.13580       -0.35170        0.36420
C         -9.97580        0.44890        1.08280
C        -11.33830        0.28630        0.97530
C        -11.91590       -0.68510        0.14360
H         -9.05850       -1.97230       -1.04530
H         -9.52890        1.20120        1.72790
H        -11.99040        0.91660        1.54040
O        -16.37160        2.53920       -1.56130
S        -16.57160        1.77850       -0.30520
O        -16.58630        2.66730        0.90770
C        -15.46900        0.44690       -0.12250
C        -14.11020        0.44400       -0.06410
C        -13.36780       -0.72980        0.10080
C        -14.09910       -1.87710        0.20110
C        -15.48320       -1.85270        0.13830
C        -16.20070       -0.67750       -0.02740
C        -17.62220       -0.49060       -0.14680
C        -18.65320       -1.42940       -0.13330
C        -19.97250       -1.06670       -0.30430
C        -20.35860        0.23930       -0.49850
C        -19.35030        1.17100       -0.51160
C        -18.03170        0.79940       -0.33970
H        -13.50630        1.35770       -0.14280
H        -13.58360       -2.83530        0.34650
H        -15.98470       -2.83270        0.22990
H        -18.40410       -2.48660        0.01770
H        -20.77120       -1.81540       -0.29120
H        -19.59000        2.21960       -0.65820
N        -24.30020        4.58480        0.40320
C        -23.92830        3.55410        0.02030
C        -23.49210        2.27650       -0.44330
C        -22.18620        1.83760       -0.26270
C        -21.75700        0.61560       -0.70900
C        -22.66840       -0.18420       -1.35310
C        -23.98470        0.21470       -1.55570
C        -24.38280        1.46250       -1.08860
H        -21.46840        2.47050        0.24850
H        -22.37450       -1.14490       -1.71720
H        -24.68660       -0.42950       -2.06440
H         25.72410        1.14570        1.73860
H        -25.42440        1.77560       -1.25090
