
     RDKit          3D

130145  0  0  0  0  0  0  0  0999 V2000
   20.4837    2.1095    3.2969 O   0  0  0  0  0  0  0  0  0  0  0  0
   20.8173    0.8206    2.6471 S   0  0  0  0  0  0  0  0  0  0  0  0
   20.7265   -0.3455    3.5887 O   0  0  0  0  0  0  0  0  0  0  0  0
   22.3366    0.8531    1.7939 C   0  0  0  0  0  0  0  0  0  0  0  0
   23.6345    1.0225    2.2653 C   0  0  0  0  0  0  0  0  0  0  0  0
   24.7049    1.0157    1.3984 C   0  0  0  0  0  0  0  0  0  0  0  0
   24.4411    0.8354    0.0527 C   0  0  0  0  0  0  0  0  0  0  0  0
   23.1731    0.6739   -0.3734 C   0  0  0  0  0  0  0  0  0  0  0  0
   22.0500    0.6745    0.4823 C   0  0  0  0  0  0  0  0  0  0  0  0
   20.6440    0.5121    0.1649 C   0  0  0  0  0  0  0  0  0  0  0  0
   20.0365    0.3068   -1.0906 C   0  0  0  0  0  0  0  0  0  0  0  0
   18.6758    0.1695   -1.1896 C   0  0  0  0  0  0  0  0  0  0  0  0
   17.8302    0.2200   -0.1074 C   0  0  0  0  0  0  0  0  0  0  0  0
   18.4186    0.4199    1.1154 C   0  0  0  0  0  0  0  0  0  0  0  0
   19.7979    0.5604    1.2277 C   0  0  0  0  0  0  0  0  0  0  0  0
   23.7685    1.1597    3.3256 H   0  0  0  0  0  0  0  0  0  0  0  0
   25.2592    0.8238   -0.6730 H   0  0  0  0  0  0  0  0  0  0  0  0
   23.0083    0.5379   -1.4323 H   0  0  0  0  0  0  0  0  0  0  0  0
   20.6561    0.2589   -1.9855 H   0  0  0  0  0  0  0  0  0  0  0  0
   18.2158    0.0103   -2.1694 H   0  0  0  0  0  0  0  0  0  0  0  0
   17.8355    0.4730    2.0145 H   0  0  0  0  0  0  0  0  0  0  0  0
   12.9703    1.0784   -3.5371 N   0  0  0  0  0  0  0  0  0  0  0  0
   13.5479    0.7314   -2.5941 C   0  0  0  0  0  0  0  0  0  0  0  0
   14.2834    0.3048   -1.4237 C   0  0  0  0  0  0  0  0  0  0  0  0
   15.6609    0.4582   -1.3493 C   0  0  0  0  0  0  0  0  0  0  0  0
   16.3777    0.0646   -0.2454 C   0  0  0  0  0  0  0  0  0  0  0  0
   15.6718   -0.4936    0.7941 C   0  0  0  0  0  0  0  0  0  0  0  0
   14.3112   -0.6601    0.7551 C   0  0  0  0  0  0  0  0  0  0  0  0
   13.5926   -0.2562   -0.3720 C   0  0  0  0  0  0  0  0  0  0  0  0
   16.1823    0.8998   -2.1797 H   0  0  0  0  0  0  0  0  0  0  0  0
   16.2189   -0.8186    1.6885 H   0  0  0  0  0  0  0  0  0  0  0  0
   13.7371   -1.1025    1.5722 H   0  0  0  0  0  0  0  0  0  0  0  0
    8.4871    2.5539   -0.0760 O   0  0  0  0  0  0  0  0  0  0  0  0
    8.5840    1.2364    0.6354 S   0  0  0  0  0  0  0  0  0  0  0  0
    8.5387    1.3692    2.1064 O   0  0  0  0  0  0  0  0  0  0  0  0
    9.8991    0.2698    0.0478 C   0  0  0  0  0  0  0  0  0  0  0  0
   11.2545    0.4831    0.1153 C   0  0  0  0  0  0  0  0  0  0  0  0
   12.1514   -0.4263   -0.4362 C   0  0  0  0  0  0  0  0  0  0  0  0
   11.6216   -1.5209   -1.0373 C   0  0  0  0  0  0  0  0  0  0  0  0
   10.2828   -1.7199   -1.0976 C   0  0  0  0  0  0  0  0  0  0  0  0
    9.3463   -0.8276   -0.5532 C   0  0  0  0  0  0  0  0  0  0  0  0
    7.9144   -0.8813   -0.5197 C   0  0  0  0  0  0  0  0  0  0  0  0
    7.0599   -1.8746   -1.0343 C   0  0  0  0  0  0  0  0  0  0  0  0
    5.6957   -1.7733   -0.9035 C   0  0  0  0  0  0  0  0  0  0  0  0
    5.0928   -0.7170   -0.2746 C   0  0  0  0  0  0  0  0  0  0  0  0
    5.9103    0.2664    0.2359 C   0  0  0  0  0  0  0  0  0  0  0  0
    7.2858    0.1546    0.0986 C   0  0  0  0  0  0  0  0  0  0  0  0
   11.6561    1.3626    0.5981 H   0  0  0  0  0  0  0  0  0  0  0  0
   12.2975   -2.2590   -1.4816 H   0  0  0  0  0  0  0  0  0  0  0  0
    9.9397   -2.6289   -1.6003 H   0  0  0  0  0  0  0  0  0  0  0  0
    7.4824   -2.7459   -1.5468 H   0  0  0  0  0  0  0  0  0  0  0  0
    5.0268   -2.5476   -1.3045 H   0  0  0  0  0  0  0  0  0  0  0  0
    5.5060    1.1163    0.7364 H   0  0  0  0  0  0  0  0  0  0  0  0
    0.7968    1.3464    3.2918 N   0  0  0  0  0  0  0  0  0  0  0  0
    1.2077    0.8396    2.3195 C   0  0  0  0  0  0  0  0  0  0  0  0
    1.7369    0.1899    1.1332 C   0  0  0  0  0  0  0  0  0  0  0  0
    3.0968    0.0405    0.9758 C   0  0  0  0  0  0  0  0  0  0  0  0
    3.6209   -0.5913   -0.1255 C   0  0  0  0  0  0  0  0  0  0  0  0
    2.7528   -1.0763   -1.0748 C   0  0  0  0  0  0  0  0  0  0  0  0
    1.3983   -0.9272   -0.9186 C   0  0  0  0  0  0  0  0  0  0  0  0
    0.8589   -0.2831    0.2005 C   0  0  0  0  0  0  0  0  0  0  0  0
    3.7625    0.4256    1.7243 H   0  0  0  0  0  0  0  0  0  0  0  0
    3.1838   -1.5798   -1.9508 H   0  0  0  0  0  0  0  0  0  0  0  0
    0.7421   -1.3174   -1.6756 H   0  0  0  0  0  0  0  0  0  0  0  0
   -4.1235   -2.8376   -1.3384 O   0  0  0  0  0  0  0  0  0  0  0  0
   -4.1285   -2.2017    0.0195 S   0  0  0  0  0  0  0  0  0  0  0  0
   -4.1143   -3.2200    1.1243 O   0  0  0  0  0  0  0  0  0  0  0  0
   -2.8237   -1.0447    0.1937 C   0  0  0  0  0  0  0  0  0  0  0  0
   -1.4345   -1.1941    0.1254 C   0  0  0  0  0  0  0  0  0  0  0  0
   -0.5960   -0.1241    0.2939 C   0  0  0  0  0  0  0  0  0  0  0  0
   -1.1813    1.0941    0.5310 C   0  0  0  0  0  0  0  0  0  0  0  0
   -2.5504    1.2451    0.5997 C   0  0  0  0  0  0  0  0  0  0  0  0
   -3.4205    0.1610    0.4295 C   0  0  0  0  0  0  0  0  0  0  0  0
   -4.8638    0.1449    0.4504 C   0  0  0  0  0  0  0  0  0  0  0  0
   -5.7491    1.2122    0.6532 C   0  0  0  0  0  0  0  0  0  0  0  0
   -7.1046    1.0404    0.6291 C   0  0  0  0  0  0  0  0  0  0  0  0
   -7.6797   -0.2068    0.4017 C   0  0  0  0  0  0  0  0  0  0  0  0
   -6.7833   -1.2310    0.2081 C   0  0  0  0  0  0  0  0  0  0  0  0
   -5.4242   -1.0592    0.2320 C   0  0  0  0  0  0  0  0  0  0  0  0
   -1.0397   -2.1899   -0.0661 H   0  0  0  0  0  0  0  0  0  0  0  0
   -0.5127    1.9607    0.6539 H   0  0  0  0  0  0  0  0  0  0  0  0
   -2.9444    2.2544    0.7963 H   0  0  0  0  0  0  0  0  0  0  0  0
   -5.3701    2.2293    0.8407 H   0  0  0  0  0  0  0  0  0  0  0  0
   -7.8056    1.8572    0.7844 H   0  0  0  0  0  0  0  0  0  0  0  0
   -7.2217   -2.2262    0.0268 H   0  0  0  0  0  0  0  0  0  0  0  0
  -12.0593   -3.2717   -2.1862 N   0  0  0  0  0  0  0  0  0  0  0  0
  -11.6190   -2.4692   -1.4451 C   0  0  0  0  0  0  0  0  0  0  0  0
  -11.0673   -1.4778   -0.5666 C   0  0  0  0  0  0  0  0  0  0  0  0
   -9.6800   -1.3127   -0.4572 C   0  0  0  0  0  0  0  0  0  0  0  0
   -9.1358   -0.3517    0.3642 C   0  0  0  0  0  0  0  0  0  0  0  0
   -9.9758    0.4489    1.0828 C   0  0  0  0  0  0  0  0  0  0  0  0
  -11.3383    0.2863    0.9753 C   0  0  0  0  0  0  0  0  0  0  0  0
  -11.9159   -0.6851    0.1436 C   0  0  0  0  0  0  0  0  0  0  0  0
   -9.0585   -1.9723   -1.0453 H   0  0  0  0  0  0  0  0  0  0  0  0
   -9.5289    1.2012    1.7279 H   0  0  0  0  0  0  0  0  0  0  0  0
  -11.9904    0.9166    1.5404 H   0  0  0  0  0  0  0  0  0  0  0  0
  -16.3716    2.5392   -1.5613 O   0  0  0  0  0  0  0  0  0  0  0  0
  -16.5716    1.7785   -0.3052 S   0  0  0  0  0  0  0  0  0  0  0  0
  -16.5863    2.6673    0.9077 O   0  0  0  0  0  0  0  0  0  0  0  0
  -15.4690    0.4469   -0.1225 C   0  0  0  0  0  0  0  0  0  0  0  0
  -14.1102    0.4440   -0.0641 C   0  0  0  0  0  0  0  0  0  0  0  0
  -13.3678   -0.7298    0.1008 C   0  0  0  0  0  0  0  0  0  0  0  0
  -14.0991   -1.8771    0.2011 C   0  0  0  0  0  0  0  0  0  0  0  0
  -15.4832   -1.8527    0.1383 C   0  0  0  0  0  0  0  0  0  0  0  0
  -16.2007   -0.6775   -0.0274 C   0  0  0  0  0  0  0  0  0  0  0  0
  -17.6222   -0.4906   -0.1468 C   0  0  0  0  0  0  0  0  0  0  0  0
  -18.6532   -1.4294   -0.1333 C   0  0  0  0  0  0  0  0  0  0  0  0
  -19.9725   -1.0667   -0.3043 C   0  0  0  0  0  0  0  0  0  0  0  0
  -20.3586    0.2393   -0.4985 C   0  0  0  0  0  0  0  0  0  0  0  0
  -19.3503    1.1710   -0.5116 C   0  0  0  0  0  0  0  0  0  0  0  0
  -18.0317    0.7994   -0.3397 C   0  0  0  0  0  0  0  0  0  0  0  0
  -13.5063    1.3577   -0.1428 H   0  0  0  0  0  0  0  0  0  0  0  0
  -13.5836   -2.8353    0.3465 H   0  0  0  0  0  0  0  0  0  0  0  0
  -15.9847   -2.8327    0.2299 H   0  0  0  0  0  0  0  0  0  0  0  0
  -18.4041   -2.4866    0.0177 H   0  0  0  0  0  0  0  0  0  0  0  0
  -20.7712   -1.8154   -0.2912 H   0  0  0  0  0  0  0  0  0  0  0  0
  -19.5900    2.2196   -0.6582 H   0  0  0  0  0  0  0  0  0  0  0  0
  -24.3002    4.5848    0.4032 N   0  0  0  0  0  0  0  0  0  0  0  0
  -23.9283    3.5541    0.0203 C   0  0  0  0  0  0  0  0  0  0  0  0
  -23.4921    2.2765   -0.4433 C   0  0  0  0  0  0  0  0  0  0  0  0
  -22.1862    1.8376   -0.2627 C   0  0  0  0  0  0  0  0  0  0  0  0
  -21.7570    0.6156   -0.7090 C   0  0  0  0  0  0  0  0  0  0  0  0
  -22.6684   -0.1842   -1.3531 C   0  0  0  0  0  0  0  0  0  0  0  0
  -23.9847    0.2147   -1.5557 C   0  0  0  0  0  0  0  0  0  0  0  0
  -24.3828    1.4625   -1.0886 C   0  0  0  0  0  0  0  0  0  0  0  0
  -21.4684    2.4705    0.2485 H   0  0  0  0  0  0  0  0  0  0  0  0
  -22.3745   -1.1449   -1.7172 H   0  0  0  0  0  0  0  0  0  0  0  0
  -24.6866   -0.4295   -2.0644 H   0  0  0  0  0  0  0  0  0  0  0  0
   25.7241    1.1457    1.7386 H   0  0  0  0  0  0  0  0  0  0  0  0
  -25.4244    1.7756   -1.2509 H   0  0  0  0  0  0  0  0  0  0  0  0
  1  2  2  0
  2  3  2  0
  2  4  1  0
  4  5  2  0
  5  6  1  0
  6  7  2  0
  7  8  1  0
  8  9  2  0
  9 10  1  0
 10 11  2  0
 11 12  1  0
 12 13  2  0
 13 14  1  0
 14 15  2  0
 15  2  1  0
  9  4  1  0
 15 10  1  0
  5 16  1  0
  7 17  1  0
  8 18  1  0
 11 19  1  0
 12 20  1  0
 14 21  1  0
 22 23  3  0
 23 24  1  0
 24 25  2  0
 25 26  1  0
 26 27  2  0
 27 28  1  0
 28 29  2  0
 29 24  1  0
 25 30  1  0
 27 31  1  0
 28 32  1  0
 33 34  2  0
 34 35  2  0
 34 36  1  0
 36 37  2  0
 37 38  1  0
 38 39  2  0
 39 40  1  0
 40 41  2  0
 41 42  1  0
 42 43  2  0
 43 44  1  0
 44 45  2  0
 45 46  1  0
 46 47  2  0
 47 34  1  0
 41 36  1  0
 47 42  1  0
 37 48  1  0
 39 49  1  0
 40 50  1  0
 43 51  1  0
 44 52  1  0
 46 53  1  0
 54 55  3  0
 55 56  1  0
 56 57  2  0
 57 58  1  0
 58 59  2  0
 59 60  1  0
 60 61  2  0
 61 56  1  0
 57 62  1  0
 59 63  1  0
 60 64  1  0
 65 66  2  0
 66 67  2  0
 66 68  1  0
 68 69  2  0
 69 70  1  0
 70 71  2  0
 71 72  1  0
 72 73  2  0
 73 74  1  0
 74 75  2  0
 75 76  1  0
 76 77  2  0
 77 78  1  0
 78 79  2  0
 79 66  1  0
 73 68  1  0
 79 74  1  0
 69 80  1  0
 71 81  1  0
 72 82  1  0
 75 83  1  0
 76 84  1  0
 78 85  1  0
 86 87  3  0
 87 88  1  0
 88 89  2  0
 89 90  1  0
 90 91  2  0
 91 92  1  0
 92 93  2  0
 93 88  1  0
 89 94  1  0
 91 95  1  0
 92 96  1  0
 97 98  2  0
 98 99  2  0
 98100  1  0
100101  2  0
101102  1  0
102103  2  0
103104  1  0
104105  2  0
105106  1  0
106107  2  0
107108  1  0
108109  2  0
109110  1  0
110111  2  0
111 98  1  0
105100  1  0
111106  1  0
101112  1  0
103113  1  0
104114  1  0
107115  1  0
108116  1  0
110117  1  0
118119  3  0
119120  1  0
120121  2  0
121122  1  0
122123  2  0
123124  1  0
124125  2  0
125120  1  0
121126  1  0
123127  1  0
124128  1  0
 13 26  1  0
 29 38  1  0
 45 58  1  0
 61 70  1  0
 77 90  1  0
 93102  1  0
109122  1  0
  6129  1  0
125130  1  0
M  END
