168

C         24.36600        2.66380        0.01900
C         24.03500        3.73410        0.81850
C         22.73910        3.93860        1.22230
C         21.78890        3.00690        0.78110
C         20.45560        3.18910        1.17500
C         19.51420        2.29880        0.75670
C         19.82830        1.23350       -0.03540
C         18.89000        0.33030       -0.45950
C         19.21030       -0.74710       -1.25700
C         20.52460       -0.95570       -1.66260
C         21.48490       -0.06020       -1.24840
C         22.80880       -0.21220       -1.62100
C         23.75750        0.68390       -1.20410
C         23.41890        1.75970       -0.40330
C         22.10560        1.93820       -0.01230
C         21.14110        1.01660       -0.44910
H         24.80260        4.41940        1.13600
H         22.40060        4.74370        1.84310
H         20.19570        4.01700        1.78610
H         18.45690        2.39640        1.03800
H         18.44090       -1.43960       -1.57750
H         20.77750       -1.80050       -2.28940
H         23.13070       -1.04950       -2.25140
H         24.81770        0.60390       -1.46950
N         14.76690       -1.13540        3.56950
C         15.15650       -0.60100        2.62520
C         15.63760        0.04550        1.43950
C         16.98430       -0.07010        1.10190
C         17.48980        0.52340       -0.04300
C         16.60640        1.23270       -0.82960
C         15.27270        1.34610       -0.49660
C         14.75310        0.74470        0.66290
H         17.65450       -0.63990        1.74310
H         17.00350        1.71590       -1.73640
H         14.59890        1.89320       -1.10600
C         13.33140        0.93060        0.96400
C         12.89020        1.69060        2.01860
C         11.54170        1.93570        2.23390
C         10.56450        1.41600        1.38360
C          9.20630        1.64150        1.58860
C          8.23780        1.12010        0.76610
C          8.66540        0.33960       -0.30540
C          7.73230       -0.22230       -1.10640
C          8.20150       -1.05200       -2.16020
C          9.53820       -1.26270       -2.34820
C         10.48900       -0.69170       -1.53870
C         11.82880       -0.93020       -1.73270
C         12.80590       -0.39470       -0.92470
C         12.36420        0.40470        0.11330
C         11.00610        0.64780        0.32510
C         10.04060        0.11910       -0.50230
H         13.63680        2.10700        2.69140
H         11.17860        2.52710        3.05690
H          8.87230        2.24090        2.42160
H          7.18210        1.28330        0.91280
H          7.45030       -1.49500       -2.78740
H          9.90400       -1.89420       -3.14880
H         12.12290       -1.56230       -2.55880
H         13.83710       -0.60470       -1.09010
C          6.29540        0.00040       -1.10130
C          5.78180        1.15770       -1.67350
C          4.40010        1.21040       -1.88930
C          3.55220        0.17990       -1.55940
C          2.18880        0.25300       -1.82430
C          1.32560       -0.78690       -1.52480
C          1.82440       -1.91580       -0.94900
C          0.98370       -2.95840       -0.61960
C          1.58460       -4.06890       -0.01460
C          2.91980       -4.15980        0.25200
C          3.74700       -3.10270       -0.08920
C          5.10850       -3.19660        0.16060
C          5.96930       -2.15350       -0.18380
C          5.41770       -1.02830       -0.76970
C          4.06340       -0.96550       -0.98620
C          3.19510       -1.99100       -0.68580
H          6.43660        1.96700       -1.93830
H          4.03600        2.12230       -2.33040
H          1.80910        1.15650       -2.28690
H          0.27210       -0.69410       -1.77400
H          0.89240       -4.88470        0.23870
H          3.36920       -5.00700        0.71740
H          5.50190       -4.08310        0.63200
H          7.03380       -2.21810       -0.00140
C         -0.44650       -2.98870       -0.91500
C         -0.87630       -3.81240       -1.97310
C         -2.20140       -3.91470       -2.30430
C         -3.18030       -3.21730       -1.62310
C         -4.50830       -3.34070       -1.97050
C         -5.49710       -2.66090       -1.30490
C         -5.11520       -1.83090       -0.25080
C         -6.09770       -1.15150        0.41990
C         -5.63820       -0.32800        1.48580
C         -4.32470       -0.21740        1.82090
C         -3.34910       -0.90550        1.13920
C         -2.01920       -0.80830        1.47500
C         -1.02290       -1.48830        0.81400
C         -1.41630       -2.29950       -0.23920
C         -2.77450       -2.40440       -0.58410
C         -3.76810       -1.72270        0.08640
H         -0.12070       -4.35350       -2.50400
H         -2.54410       -4.56160       -3.12890
H         -4.79430       -3.99690       -2.79330
H         -6.53430       -2.77110       -1.55920
H         -6.41790        0.20140        2.01010
H         -3.99130        0.42220        2.63810
H         -1.73210       -0.15490        2.31620
H          0.01290       -1.42670        1.09830
N        -11.06980       -2.11570        3.37480
C        -10.46850       -1.88600        2.41830
C         -9.69180       -1.58890        1.24260
C         -8.33670       -1.52440        1.28750
C         -7.52400       -1.21310        0.17470
C         -8.20980       -0.97520       -0.98080
C         -9.60640       -1.04300       -1.02570
C        -10.39120       -1.34060        0.04540
H         -7.76870       -1.72390        2.21060
H         -7.64840       -0.72310       -1.86440
H        -10.11330       -0.85850       -1.98630
C        -11.84300       -1.48200        0.04900
C        -12.39980       -2.68420        0.47940
C        -13.74480       -2.87680        0.52460
C        -14.63130       -1.89380        0.14670
C        -15.98630       -2.05210        0.21740
C        -16.85820       -1.01700       -0.14310
C        -16.35270        0.18920       -0.58020
C        -17.23980        1.21780       -0.91280
C        -16.64730        2.41440       -1.32620
C        -15.28900        2.55850       -1.39800
C        -14.42650        1.52510       -1.05720
C        -13.07670        1.75280       -1.12190
C        -12.20440        0.71990       -0.74990
C        -12.71690       -0.48660       -0.33660
C        -14.10880       -0.69710       -0.28530
C        -14.96900        0.32940       -0.64470
H        -11.73670       -3.47170        0.76910
H        -14.20470       -3.81950        0.86510
H        -16.42760       -2.97170        0.55250
H        -17.91570       -1.14640       -0.07200
H        -17.28190        3.24480       -1.59750
H        -14.81360        3.49190       -1.72640
H        -12.61730        2.67140       -1.43930
H        -11.14260        0.89130       -0.77420
C        -18.66700        1.04950       -0.84710
C        -19.31230        0.16530       -1.67240
C        -20.69710        0.06980       -1.56760
C        -21.44120        0.81400       -0.68080
C        -22.81770        0.67660       -0.58530
C        -23.56030        1.39350        0.31180
C        -22.91060        2.28610        1.14690
C        -23.67630        3.00820        2.07400
C        -23.01050        3.86430        2.88770
C        -21.64720        4.04580        2.83990
C        -20.92060        3.30660        1.90340
C        -19.56460        3.43080        1.82420
C        -18.80160        2.70100        0.91880
C        -19.39350        1.82550        0.06670
C        -20.78070        1.70170        0.14610
C        -21.54400        2.42130        1.04850
H        -18.77410       -0.45780       -2.39050
H        -21.17730       -0.63800       -2.23960
H        -23.31240       -0.02520       -1.24710
H        -24.63130        1.26610        0.37710
H        -23.57650        4.44840        3.63010
H        -21.13310        4.72090        3.48710
H        -19.07000        4.12340        2.48720
H        -17.74870        2.85310        0.93620
H         25.39530        2.49890       -0.30800
H        -24.75800        2.87640        2.13270
