
     RDKit          3D

156177  0  0  0  0  0  0  0  0999 V2000
  -22.3084    0.9578   -3.1555 O   0  0  0  0  0  0  0  0  0  0  0  0
  -21.9665    2.2935   -2.5745 S   0  0  0  0  0  0  0  0  0  0  0  0
  -21.2553    3.2007   -3.5402 O   0  0  0  0  0  0  0  0  0  0  0  0
  -23.3024    3.0809   -1.7974 C   0  0  0  0  0  0  0  0  0  0  0  0
  -24.4721    3.5585   -2.3389 C   0  0  0  0  0  0  0  0  0  0  0  0
  -25.4183    4.1713   -1.5416 C   0  0  0  0  0  0  0  0  0  0  0  0
  -25.1435    4.2807   -0.2022 C   0  0  0  0  0  0  0  0  0  0  0  0
  -23.9798    3.7987    0.3036 C   0  0  0  0  0  0  0  0  0  0  0  0
  -22.9901    3.1685   -0.4706 C   0  0  0  0  0  0  0  0  0  0  0  0
  -21.7157    2.6216   -0.0998 C   0  0  0  0  0  0  0  0  0  0  0  0
  -21.0985    2.5755    1.1676 C   0  0  0  0  0  0  0  0  0  0  0  0
  -19.8509    2.0267    1.3226 C   0  0  0  0  0  0  0  0  0  0  0  0
  -19.1232    1.4961    0.2937 C   0  0  0  0  0  0  0  0  0  0  0  0
  -19.7251    1.5365   -0.9559 C   0  0  0  0  0  0  0  0  0  0  0  0
  -20.9784    2.0883   -1.1113 C   0  0  0  0  0  0  0  0  0  0  0  0
  -24.6960    3.4702   -3.4032 H   0  0  0  0  0  0  0  0  0  0  0  0
  -25.8419    4.7585    0.4918 H   0  0  0  0  0  0  0  0  0  0  0  0
  -23.8112    3.9167    1.3845 H   0  0  0  0  0  0  0  0  0  0  0  0
  -21.6281    2.9882    2.0231 H   0  0  0  0  0  0  0  0  0  0  0  0
  -19.3766    1.9940    2.3185 H   0  0  0  0  0  0  0  0  0  0  0  0
  -19.2138    1.1372   -1.8052 H   0  0  0  0  0  0  0  0  0  0  0  0
  -13.9659    2.2271    3.2131 N   0  0  0  0  0  0  0  0  0  0  0  0
  -14.6753    1.7314    2.4250 C   0  0  0  0  0  0  0  0  0  0  0  0
  -15.5528    1.1455    1.4440 C   0  0  0  0  0  0  0  0  0  0  0  0
  -16.8792    1.5317    1.3493 C   0  0  0  0  0  0  0  0  0  0  0  0
  -17.7494    0.9784    0.4342 C   0  0  0  0  0  0  0  0  0  0  0  0
  -17.2536    0.0042   -0.4008 C   0  0  0  0  0  0  0  0  0  0  0  0
  -15.9288   -0.3854   -0.3100 C   0  0  0  0  0  0  0  0  0  0  0  0
  -15.0469    0.1643    0.5977 C   0  0  0  0  0  0  0  0  0  0  0  0
  -17.2796    2.2978    2.0086 H   0  0  0  0  0  0  0  0  0  0  0  0
  -17.9097   -0.4655   -1.1361 H   0  0  0  0  0  0  0  0  0  0  0  0
  -15.5214   -1.1581   -0.9675 H   0  0  0  0  0  0  0  0  0  0  0  0
  -13.6207   -0.1286    0.5963 C   0  0  0  0  0  0  0  0  0  0  0  0
  -12.7349    0.9446    0.3701 C   0  0  0  0  0  0  0  0  0  0  0  0
  -11.4006    0.7984    0.2504 C   0  0  0  0  0  0  0  0  0  0  0  0
  -10.8620   -0.4785    0.3553 C   0  0  0  0  0  0  0  0  0  0  0  0
   -9.5002   -0.6335    0.2099 C   0  0  0  0  0  0  0  0  0  0  0  0
   -8.9230   -1.8930    0.2888 C   0  0  0  0  0  0  0  0  0  0  0  0
   -9.7321   -2.9701    0.5148 C   0  0  0  0  0  0  0  0  0  0  0  0
   -9.1462   -4.2362    0.5885 C   0  0  0  0  0  0  0  0  0  0  0  0
   -9.9637   -5.3052    0.8100 C   0  0  0  0  0  0  0  0  0  0  0  0
  -11.3555   -5.1325    0.9570 C   0  0  0  0  0  0  0  0  0  0  0  0
  -11.9222   -3.8869    0.8817 C   0  0  0  0  0  0  0  0  0  0  0  0
  -13.3103   -3.7100    1.0108 C   0  0  0  0  0  0  0  0  0  0  0  0
  -13.8776   -2.4730    0.9204 C   0  0  0  0  0  0  0  0  0  0  0  0
  -13.0681   -1.3725    0.7000 C   0  0  0  0  0  0  0  0  0  0  0  0
  -11.6735   -1.5488    0.5778 C   0  0  0  0  0  0  0  0  0  0  0  0
  -11.1093   -2.8009    0.6596 C   0  0  0  0  0  0  0  0  0  0  0  0
  -13.1779    1.9212    0.2827 H   0  0  0  0  0  0  0  0  0  0  0  0
  -10.7185    1.6285    0.0740 H   0  0  0  0  0  0  0  0  0  0  0  0
   -8.8865    0.2396    0.0334 H   0  0  0  0  0  0  0  0  0  0  0  0
   -7.8635   -1.9453    0.1349 H   0  0  0  0  0  0  0  0  0  0  0  0
   -9.5702   -6.3138    0.8776 H   0  0  0  0  0  0  0  0  0  0  0  0
  -11.9994   -5.9773    1.1316 H   0  0  0  0  0  0  0  0  0  0  0  0
  -13.9534   -4.5550    1.1809 H   0  0  0  0  0  0  0  0  0  0  0  0
  -14.9496   -2.3430    1.0301 H   0  0  0  0  0  0  0  0  0  0  0  0
   -4.4453   -1.5672    2.3158 O   0  0  0  0  0  0  0  0  0  0  0  0
   -4.2352   -3.0032    2.0168 S   0  0  0  0  0  0  0  0  0  0  0  0
   -3.8909   -3.8132    3.2356 O   0  0  0  0  0  0  0  0  0  0  0  0
   -5.5017   -3.7321    1.0849 C   0  0  0  0  0  0  0  0  0  0  0  0
   -6.8487   -3.7484    1.2956 C   0  0  0  0  0  0  0  0  0  0  0  0
   -7.7038   -4.4013    0.4264 C   0  0  0  0  0  0  0  0  0  0  0  0
   -7.1399   -5.0323   -0.6358 C   0  0  0  0  0  0  0  0  0  0  0  0
   -5.7868   -5.0161   -0.8461 C   0  0  0  0  0  0  0  0  0  0  0  0
   -4.8972   -4.3459    0.0221 C   0  0  0  0  0  0  0  0  0  0  0  0
   -3.4956   -4.0515   -0.1357 C   0  0  0  0  0  0  0  0  0  0  0  0
   -2.6470   -4.3939   -1.2082 C   0  0  0  0  0  0  0  0  0  0  0  0
   -1.3747   -3.8657   -1.2706 C   0  0  0  0  0  0  0  0  0  0  0  0
   -0.8575   -3.0107   -0.3465 C   0  0  0  0  0  0  0  0  0  0  0  0
   -1.7022   -2.6828    0.7213 C   0  0  0  0  0  0  0  0  0  0  0  0
   -2.9636   -3.2021    0.7910 C   0  0  0  0  0  0  0  0  0  0  0  0
   -7.3126   -3.2486    2.1577 H   0  0  0  0  0  0  0  0  0  0  0  0
   -7.7851   -5.5665   -1.3324 H   0  0  0  0  0  0  0  0  0  0  0  0
   -5.4032   -5.5402   -1.7082 H   0  0  0  0  0  0  0  0  0  0  0  0
   -2.9847   -5.0745   -1.9905 H   0  0  0  0  0  0  0  0  0  0  0  0
   -0.7285   -4.1380   -2.1043 H   0  0  0  0  0  0  0  0  0  0  0  0
   -1.3710   -2.0264    1.4963 H   0  0  0  0  0  0  0  0  0  0  0  0
    4.9359   -3.6460   -0.8542 O   0  0  0  0  0  0  0  0  0  0  0  0
    4.3402   -2.5202   -1.6574 S   0  0  0  0  0  0  0  0  0  0  0  0
    4.2948   -2.8471   -3.1100 O   0  0  0  0  0  0  0  0  0  0  0  0
    2.7367   -2.1230   -1.0302 C   0  0  0  0  0  0  0  0  0  0  0  0
    1.5597   -2.8798   -0.9604 C   0  0  0  0  0  0  0  0  0  0  0  0
    0.4500   -2.3460   -0.4172 C   0  0  0  0  0  0  0  0  0  0  0  0
    0.5274   -1.0246    0.0677 C   0  0  0  0  0  0  0  0  0  0  0  0
    1.6732   -0.2936   -0.0047 C   0  0  0  0  0  0  0  0  0  0  0  0
    2.8436   -0.8368   -0.5718 C   0  0  0  0  0  0  0  0  0  0  0  0
    4.1217   -0.2242   -0.7168 C   0  0  0  0  0  0  0  0  0  0  0  0
    4.5438    1.0683   -0.3473 C   0  0  0  0  0  0  0  0  0  0  0  0
    5.8010    1.5145   -0.5410 C   0  0  0  0  0  0  0  0  0  0  0  0
    6.7583    0.7281   -1.1152 C   0  0  0  0  0  0  0  0  0  0  0  0
    6.3795   -0.5467   -1.4930 C   0  0  0  0  0  0  0  0  0  0  0  0
    5.0925   -0.9935   -1.2926 C   0  0  0  0  0  0  0  0  0  0  0  0
    1.5891   -3.8928   -1.3556 H   0  0  0  0  0  0  0  0  0  0  0  0
   -0.3737   -0.6214    0.4970 H   0  0  0  0  0  0  0  0  0  0  0  0
    1.6626    0.7282    0.3959 H   0  0  0  0  0  0  0  0  0  0  0  0
    3.8424    1.7552    0.1231 H   0  0  0  0  0  0  0  0  0  0  0  0
    6.1333    2.5226   -0.2623 H   0  0  0  0  0  0  0  0  0  0  0  0
    7.0922   -1.2148   -1.9502 H   0  0  0  0  0  0  0  0  0  0  0  0
   10.7728    4.1542    1.4686 N   0  0  0  0  0  0  0  0  0  0  0  0
   10.4170    3.3973    0.6468 C   0  0  0  0  0  0  0  0  0  0  0  0
    9.9546    2.4842   -0.3592 C   0  0  0  0  0  0  0  0  0  0  0  0
    8.6506    2.0607   -0.3312 C   0  0  0  0  0  0  0  0  0  0  0  0
    8.1420    1.1728   -1.2851 C   0  0  0  0  0  0  0  0  0  0  0  0
    8.9728    0.7340   -2.2571 C   0  0  0  0  0  0  0  0  0  0  0  0
   10.2888    1.1453   -2.3061 C   0  0  0  0  0  0  0  0  0  0  0  0
   10.7936    2.0146   -1.3680 C   0  0  0  0  0  0  0  0  0  0  0  0
    8.0042    2.4303    0.4579 H   0  0  0  0  0  0  0  0  0  0  0  0
    8.5904    0.0441   -3.0202 H   0  0  0  0  0  0  0  0  0  0  0  0
   10.9639    0.8000   -3.0877 H   0  0  0  0  0  0  0  0  0  0  0  0
   12.1888    2.4135   -1.3267 C   0  0  0  0  0  0  0  0  0  0  0  0
   12.6978    3.4349   -2.0660 C   0  0  0  0  0  0  0  0  0  0  0  0
   14.0687    3.7369   -2.0076 C   0  0  0  0  0  0  0  0  0  0  0  0
   14.8780    2.9745   -1.1868 C   0  0  0  0  0  0  0  0  0  0  0  0
   16.2175    3.2529   -1.1286 C   0  0  0  0  0  0  0  0  0  0  0  0
   17.0570    2.4988   -0.3206 C   0  0  0  0  0  0  0  0  0  0  0  0
   16.5937    1.4630    0.4411 C   0  0  0  0  0  0  0  0  0  0  0  0
   17.4396    0.7396    1.2315 C   0  0  0  0  0  0  0  0  0  0  0  0
   16.8756   -0.2968    1.9907 C   0  0  0  0  0  0  0  0  0  0  0  0
   15.5284   -0.5669    1.9303 C   0  0  0  0  0  0  0  0  0  0  0  0
   14.6792    0.1780    1.1139 C   0  0  0  0  0  0  0  0  0  0  0  0
   13.3440   -0.1185    1.0675 C   0  0  0  0  0  0  0  0  0  0  0  0
   12.5016    0.6235    0.2509 C   0  0  0  0  0  0  0  0  0  0  0  0
   13.0327    1.6516   -0.4970 C   0  0  0  0  0  0  0  0  0  0  0  0
   14.3670    1.9199   -0.4188 C   0  0  0  0  0  0  0  0  0  0  0  0
   15.2303    1.1870    0.3779 C   0  0  0  0  0  0  0  0  0  0  0  0
   12.0943    4.0438   -2.7108 H   0  0  0  0  0  0  0  0  0  0  0  0
   14.4779    4.5575   -2.6013 H   0  0  0  0  0  0  0  0  0  0  0  0
   16.6702    4.0500   -1.6972 H   0  0  0  0  0  0  0  0  0  0  0  0
   18.0846    2.7485   -0.2898 H   0  0  0  0  0  0  0  0  0  0  0  0
   17.4913   -0.8986    2.6338 H   0  0  0  0  0  0  0  0  0  0  0  0
   15.0652   -1.3747    2.5169 H   0  0  0  0  0  0  0  0  0  0  0  0
   12.9519   -0.9202    1.6630 H   0  0  0  0  0  0  0  0  0  0  0  0
   11.4547    0.4118    0.1868 H   0  0  0  0  0  0  0  0  0  0  0  0
   22.2453   -0.4558   -1.6905 O   0  0  0  0  0  0  0  0  0  0  0  0
   22.3167    0.8368   -0.9488 S   0  0  0  0  0  0  0  0  0  0  0  0
   22.2022    2.0375   -1.8394 O   0  0  0  0  0  0  0  0  0  0  0  0
   21.0594    0.8907    0.2959 C   0  0  0  0  0  0  0  0  0  0  0  0
   19.6885    0.8184    0.1932 C   0  0  0  0  0  0  0  0  0  0  0  0
   18.8810    0.8734    1.3058 C   0  0  0  0  0  0  0  0  0  0  0  0
   19.5414    1.0103    2.5132 C   0  0  0  0  0  0  0  0  0  0  0  0
   20.9045    1.0854    2.6300 C   0  0  0  0  0  0  0  0  0  0  0  0
   21.7251    1.0233    1.4848 C   0  0  0  0  0  0  0  0  0  0  0  0
   23.1611    1.0467    1.3942 C   0  0  0  0  0  0  0  0  0  0  0  0
   24.1354    1.1373    2.4082 C   0  0  0  0  0  0  0  0  0  0  0  0
   25.4679    1.1151    2.1686 C   0  0  0  0  0  0  0  0  0  0  0  0
   25.9522    0.9982    0.8833 C   0  0  0  0  0  0  0  0  0  0  0  0
   25.0198    0.9058   -0.1485 C   0  0  0  0  0  0  0  0  0  0  0  0
   23.6746    0.9328    0.1354 C   0  0  0  0  0  0  0  0  0  0  0  0
   19.2562    0.7144   -0.7892 H   0  0  0  0  0  0  0  0  0  0  0  0
   18.9391    1.0586    3.4211 H   0  0  0  0  0  0  0  0  0  0  0  0
   21.3688    1.1973    3.6206 H   0  0  0  0  0  0  0  0  0  0  0  0
   23.7937    1.2320    3.4343 H   0  0  0  0  0  0  0  0  0  0  0  0
   26.1415    1.1889    3.0238 H   0  0  0  0  0  0  0  0  0  0  0  0
   25.3764    0.8138   -1.1725 H   0  0  0  0  0  0  0  0  0  0  0  0
  -26.3440    4.5530   -1.9248 H   0  0  0  0  0  0  0  0  0  0  0  0
   27.0008    0.9732    0.6671 H   0  0  0  0  0  0  0  0  0  0  0  0
  1  2  2  0
  2  3  2  0
  2  4  1  0
  4  5  2  0
  5  6  1  0
  6  7  2  0
  7  8  1  0
  8  9  2  0
  9 10  1  0
 10 11  2  0
 11 12  1  0
 12 13  2  0
 13 14  1  0
 14 15  2  0
 15  2  1  0
  9  4  1  0
 15 10  1  0
  5 16  1  0
  7 17  1  0
  8 18  1  0
 11 19  1  0
 12 20  1  0
 14 21  1  0
 22 23  3  0
 23 24  1  0
 24 25  2  0
 25 26  1  0
 26 27  2  0
 27 28  1  0
 28 29  2  0
 29 24  1  0
 25 30  1  0
 27 31  1  0
 28 32  1  0
 33 34  2  0
 34 35  1  0
 35 36  2  0
 36 37  1  0
 37 38  2  0
 38 39  1  0
 39 40  2  0
 40 41  1  0
 41 42  2  0
 42 43  1  0
 43 44  2  0
 44 45  1  0
 45 46  2  0
 46 47  1  0
 47 48  2  0
 46 33  1  0
 47 36  1  0
 48 39  1  0
 48 43  1  0
 34 49  1  0
 35 50  1  0
 37 51  1  0
 38 52  1  0
 41 53  1  0
 42 54  1  0
 44 55  1  0
 45 56  1  0
 57 58  2  0
 58 59  2  0
 58 60  1  0
 60 61  2  0
 61 62  1  0
 62 63  2  0
 63 64  1  0
 64 65  2  0
 65 66  1  0
 66 67  2  0
 67 68  1  0
 68 69  2  0
 69 70  1  0
 70 71  2  0
 71 58  1  0
 65 60  1  0
 71 66  1  0
 61 72  1  0
 63 73  1  0
 64 74  1  0
 67 75  1  0
 68 76  1  0
 70 77  1  0
 78 79  2  0
 79 80  2  0
 79 81  1  0
 81 82  2  0
 82 83  1  0
 83 84  2  0
 84 85  1  0
 85 86  2  0
 86 87  1  0
 87 88  2  0
 88 89  1  0
 89 90  2  0
 90 91  1  0
 91 92  2  0
 92 79  1  0
 86 81  1  0
 92 87  1  0
 82 93  1  0
 84 94  1  0
 85 95  1  0
 88 96  1  0
 89 97  1  0
 91 98  1  0
 99100  3  0
100101  1  0
101102  2  0
102103  1  0
103104  2  0
104105  1  0
105106  2  0
106101  1  0
102107  1  0
104108  1  0
105109  1  0
110111  2  0
111112  1  0
112113  2  0
113114  1  0
114115  2  0
115116  1  0
116117  2  0
117118  1  0
118119  2  0
119120  1  0
120121  2  0
121122  1  0
122123  2  0
123124  1  0
124125  2  0
123110  1  0
124113  1  0
125116  1  0
125120  1  0
111126  1  0
112127  1  0
114128  1  0
115129  1  0
118130  1  0
119131  1  0
121132  1  0
122133  1  0
134135  2  0
135136  2  0
135137  1  0
137138  2  0
138139  1  0
139140  2  0
140141  1  0
141142  2  0
142143  1  0
143144  2  0
144145  1  0
145146  2  0
146147  1  0
147148  2  0
148135  1  0
142137  1  0
148143  1  0
138149  1  0
140150  1  0
141151  1  0
144152  1  0
145153  1  0
147154  1  0
 13 26  1  0
 29 33  1  0
 40 62  1  0
 69 83  1  0
 90103  1  0
106110  1  0
117139  1  0
  6155  1  0
146156  1  0
M  END
