
     RDKit          3D

150169  0  0  0  0  0  0  0  0999 V2000
  -22.3976    3.1902    3.8871 O   0  0  0  0  0  0  0  0  0  0  0  0
  -22.7558    1.7399    4.0860 S   0  0  0  0  0  0  0  0  0  0  0  0
  -22.0667    1.1561    5.2698 O   0  0  0  0  0  0  0  0  0  0  0  0
  -24.4951    1.5355    4.1446 C   0  0  0  0  0  0  0  0  0  0  0  0
  -25.4484    1.9878    5.0597 C   0  0  0  0  0  0  0  0  0  0  0  0
  -26.7694    1.6856    4.8568 C   0  0  0  0  0  0  0  0  0  0  0  0
  -27.1185    0.9499    3.7642 C   0  0  0  0  0  0  0  0  0  0  0  0
  -26.1821    0.5067    2.8670 C   0  0  0  0  0  0  0  0  0  0  0  0
  -24.8216    0.7919    3.0341 C   0  0  0  0  0  0  0  0  0  0  0  0
  -23.7179    0.4054    2.2089 C   0  0  0  0  0  0  0  0  0  0  0  0
  -23.7173   -0.3482    1.0208 C   0  0  0  0  0  0  0  0  0  0  0  0
  -22.5828   -0.6465    0.3285 C   0  0  0  0  0  0  0  0  0  0  0  0
  -21.3606   -0.2299    0.7496 C   0  0  0  0  0  0  0  0  0  0  0  0
  -21.3279    0.5126    1.9154 C   0  0  0  0  0  0  0  0  0  0  0  0
  -22.4840    0.8210    2.6258 C   0  0  0  0  0  0  0  0  0  0  0  0
  -25.0614    2.5653    5.8964 H   0  0  0  0  0  0  0  0  0  0  0  0
  -28.1863    0.7269    3.6394 H   0  0  0  0  0  0  0  0  0  0  0  0
  -26.5469   -0.0774    2.0185 H   0  0  0  0  0  0  0  0  0  0  0  0
  -24.6660   -0.7259    0.6097 H   0  0  0  0  0  0  0  0  0  0  0  0
  -22.6627   -1.2412   -0.5848 H   0  0  0  0  0  0  0  0  0  0  0  0
  -20.4036    0.8967    2.3429 H   0  0  0  0  0  0  0  0  0  0  0  0
  -15.6752    0.0441    1.4915 O   0  0  0  0  0  0  0  0  0  0  0  0
  -16.1331   -1.0891    0.6427 S   0  0  0  0  0  0  0  0  0  0  0  0
  -16.0263   -2.4111    1.3476 O   0  0  0  0  0  0  0  0  0  0  0  0
  -17.7619   -0.8233    0.0354 C   0  0  0  0  0  0  0  0  0  0  0  0
  -18.9534   -0.6374    0.7143 C   0  0  0  0  0  0  0  0  0  0  0  0
  -20.1249   -0.4681    0.0578 C   0  0  0  0  0  0  0  0  0  0  0  0
  -20.0661   -0.4911   -1.3351 C   0  0  0  0  0  0  0  0  0  0  0  0
  -18.8800   -0.6738   -2.0059 C   0  0  0  0  0  0  0  0  0  0  0  0
  -17.6654   -0.8486   -1.3252 C   0  0  0  0  0  0  0  0  0  0  0  0
  -16.3400   -1.0126   -1.8578 C   0  0  0  0  0  0  0  0  0  0  0  0
  -15.9096   -1.0285   -3.1790 C   0  0  0  0  0  0  0  0  0  0  0  0
  -14.5775   -1.1455   -3.5076 C   0  0  0  0  0  0  0  0  0  0  0  0
  -13.5842   -1.2561   -2.5626 C   0  0  0  0  0  0  0  0  0  0  0  0
  -14.0501   -1.2406   -1.2359 C   0  0  0  0  0  0  0  0  0  0  0  0
  -15.3633   -1.1234   -0.9180 C   0  0  0  0  0  0  0  0  0  0  0  0
  -18.9473   -0.6266    1.8019 H   0  0  0  0  0  0  0  0  0  0  0  0
  -20.9806   -0.3616   -1.8915 H   0  0  0  0  0  0  0  0  0  0  0  0
  -18.9042   -0.6809   -3.1063 H   0  0  0  0  0  0  0  0  0  0  0  0
  -16.6145   -0.9465   -4.0213 H   0  0  0  0  0  0  0  0  0  0  0  0
  -14.2537   -1.1510   -4.5584 H   0  0  0  0  0  0  0  0  0  0  0  0
  -13.2837   -1.3348   -0.4529 H   0  0  0  0  0  0  0  0  0  0  0  0
   -8.5714   -0.9807    0.1634 O   0  0  0  0  0  0  0  0  0  0  0  0
   -8.6301   -0.2996   -1.1574 S   0  0  0  0  0  0  0  0  0  0  0  0
   -8.6757    1.1990   -1.0087 O   0  0  0  0  0  0  0  0  0  0  0  0
   -9.9576   -0.8657   -2.1545 C   0  0  0  0  0  0  0  0  0  0  0  0
  -11.3151   -0.8192   -1.8983 C   0  0  0  0  0  0  0  0  0  0  0  0
  -12.1633   -1.3319   -2.8388 C   0  0  0  0  0  0  0  0  0  0  0  0
  -11.6516   -1.8625   -3.9773 C   0  0  0  0  0  0  0  0  0  0  0  0
  -10.2922   -1.9018   -4.2195 C   0  0  0  0  0  0  0  0  0  0  0  0
   -9.3854   -1.3846   -3.2769 C   0  0  0  0  0  0  0  0  0  0  0  0
   -7.9520   -1.3448   -3.3242 C   0  0  0  0  0  0  0  0  0  0  0  0
   -7.0725   -1.7861   -4.3254 C   0  0  0  0  0  0  0  0  0  0  0  0
   -5.7065   -1.6604   -4.1866 C   0  0  0  0  0  0  0  0  0  0  0  0
   -5.1218   -1.1149   -3.0968 C   0  0  0  0  0  0  0  0  0  0  0  0
   -6.0077   -0.6710   -2.0884 C   0  0  0  0  0  0  0  0  0  0  0  0
   -7.3519   -0.7965   -2.2339 C   0  0  0  0  0  0  0  0  0  0  0  0
  -11.6277   -0.3733   -0.9673 H   0  0  0  0  0  0  0  0  0  0  0  0
  -12.3537   -2.2626   -4.6974 H   0  0  0  0  0  0  0  0  0  0  0  0
   -9.9569   -2.3401   -5.1389 H   0  0  0  0  0  0  0  0  0  0  0  0
   -7.4343   -2.2437   -5.2467 H   0  0  0  0  0  0  0  0  0  0  0  0
   -5.0646   -2.0242   -5.0007 H   0  0  0  0  0  0  0  0  0  0  0  0
   -5.5391   -0.2283   -1.2131 H   0  0  0  0  0  0  0  0  0  0  0  0
   -1.0247   -1.2051    1.1205 N   0  0  0  0  0  0  0  0  0  0  0  0
   -1.3958   -1.0171    0.0251 C   0  0  0  0  0  0  0  0  0  0  0  0
   -1.8717   -0.8182   -1.3319 C   0  0  0  0  0  0  0  0  0  0  0  0
   -3.1972   -1.0575   -1.6139 C   0  0  0  0  0  0  0  0  0  0  0  0
   -3.6966   -0.9263   -2.9174 C   0  0  0  0  0  0  0  0  0  0  0  0
   -2.7982   -0.5536   -3.8815 C   0  0  0  0  0  0  0  0  0  0  0  0
   -1.4545   -0.3116   -3.5867 C   0  0  0  0  0  0  0  0  0  0  0  0
   -0.9701   -0.4404   -2.2985 C   0  0  0  0  0  0  0  0  0  0  0  0
   -3.8838   -1.3537   -0.8341 H   0  0  0  0  0  0  0  0  0  0  0  0
   -3.1685   -0.4507   -4.8894 H   0  0  0  0  0  0  0  0  0  0  0  0
   -0.7480   -0.0098   -4.3703 H   0  0  0  0  0  0  0  0  0  0  0  0
    4.4934   -2.2819   -3.1466 O   0  0  0  0  0  0  0  0  0  0  0  0
    4.2834   -0.7985   -3.2530 S   0  0  0  0  0  0  0  0  0  0  0  0
    4.3479   -0.3217   -4.6722 O   0  0  0  0  0  0  0  0  0  0  0  0
    2.7797   -0.3149   -2.4725 C   0  0  0  0  0  0  0  0  0  0  0  0
    1.4536   -0.6384   -2.7588 C   0  0  0  0  0  0  0  0  0  0  0  0
    0.4244   -0.1233   -2.0139 C   0  0  0  0  0  0  0  0  0  0  0  0
    0.7884    0.7194   -0.9839 C   0  0  0  0  0  0  0  0  0  0  0  0
    2.0988    1.0386   -0.6982 C   0  0  0  0  0  0  0  0  0  0  0  0
    3.1458    0.5139   -1.4576 C   0  0  0  0  0  0  0  0  0  0  0  0
    4.5605    0.7416   -1.2990 C   0  0  0  0  0  0  0  0  0  0  0  0
    5.2385    1.5089   -0.3505 C   0  0  0  0  0  0  0  0  0  0  0  0
    6.6085    1.5917   -0.3389 C   0  0  0  0  0  0  0  0  0  0  0  0
    7.4001    0.9343   -1.2496 C   0  0  0  0  0  0  0  0  0  0  0  0
    6.7155    0.1764   -2.1880 C   0  0  0  0  0  0  0  0  0  0  0  0
    5.3450    0.0906   -2.2013 C   0  0  0  0  0  0  0  0  0  0  0  0
    1.2662   -1.3102   -3.5936 H   0  0  0  0  0  0  0  0  0  0  0  0
   -0.0173    1.1576   -0.3907 H   0  0  0  0  0  0  0  0  0  0  0  0
    2.3079    1.7139    0.1371 H   0  0  0  0  0  0  0  0  0  0  0  0
    4.6920    2.0729    0.4183 H   0  0  0  0  0  0  0  0  0  0  0  0
    7.1190    2.2051    0.4206 H   0  0  0  0  0  0  0  0  0  0  0  0
    7.3448   -0.3445   -2.9093 H   0  0  0  0  0  0  0  0  0  0  0  0
   11.5250    2.5596    2.4808 O   0  0  0  0  0  0  0  0  0  0  0  0
   11.6933    1.2530    1.7731 S   0  0  0  0  0  0  0  0  0  0  0  0
   11.4534    0.0817    2.6677 O   0  0  0  0  0  0  0  0  0  0  0  0
   10.7669    1.1584    0.3066 C   0  0  0  0  0  0  0  0  0  0  0  0
    9.4082    1.0850    0.1295 C   0  0  0  0  0  0  0  0  0  0  0  0
    8.8460    1.0125   -1.1478 C   0  0  0  0  0  0  0  0  0  0  0  0
    9.7337    1.0226   -2.1768 C   0  0  0  0  0  0  0  0  0  0  0  0
   11.0725    1.0953   -2.0038 C   0  0  0  0  0  0  0  0  0  0  0  0
   11.6568    1.1667   -0.7190 C   0  0  0  0  0  0  0  0  0  0  0  0
   13.0451    1.1729   -0.3344 C   0  0  0  0  0  0  0  0  0  0  0  0
   14.1940    1.1185   -1.1538 C   0  0  0  0  0  0  0  0  0  0  0  0
   15.4436    1.0599   -0.5905 C   0  0  0  0  0  0  0  0  0  0  0  0
   15.6604    1.0499    0.7684 C   0  0  0  0  0  0  0  0  0  0  0  0
   14.5580    1.1065    1.5768 C   0  0  0  0  0  0  0  0  0  0  0  0
   13.2842    1.1668    1.0086 C   0  0  0  0  0  0  0  0  0  0  0  0
    8.7144    1.0826    0.9704 H   0  0  0  0  0  0  0  0  0  0  0  0
    9.3293    0.9666   -3.1912 H   0  0  0  0  0  0  0  0  0  0  0  0
   11.7157    1.1021   -2.8581 H   0  0  0  0  0  0  0  0  0  0  0  0
   14.0807    1.1287   -2.2405 H   0  0  0  0  0  0  0  0  0  0  0  0
   16.3241    1.0149   -1.2381 H   0  0  0  0  0  0  0  0  0  0  0  0
   14.6393    1.1081    2.6561 H   0  0  0  0  0  0  0  0  0  0  0  0
   21.0892    3.1390    0.6745 O   0  0  0  0  0  0  0  0  0  0  0  0
   20.9539    1.6425    0.5225 S   0  0  0  0  0  0  0  0  0  0  0  0
   21.1837    1.1708   -0.8708 O   0  0  0  0  0  0  0  0  0  0  0  0
   19.3766    1.1434    1.1303 C   0  0  0  0  0  0  0  0  0  0  0  0
   18.1029    1.3843    0.6418 C   0  0  0  0  0  0  0  0  0  0  0  0
   17.0266    0.8932    1.3156 C   0  0  0  0  0  0  0  0  0  0  0  0
   17.2339    0.1704    2.4723 C   0  0  0  0  0  0  0  0  0  0  0  0
   18.4910   -0.0476    2.9221 C   0  0  0  0  0  0  0  0  0  0  0  0
   19.6386    0.4293    2.2699 C   0  0  0  0  0  0  0  0  0  0  0  0
   21.0209    0.2423    2.5843 C   0  0  0  0  0  0  0  0  0  0  0  0
   21.5978   -0.4753    3.6414 C   0  0  0  0  0  0  0  0  0  0  0  0
   22.9373   -0.6118    3.7896 C   0  0  0  0  0  0  0  0  0  0  0  0
   23.8330   -0.0448    2.8966 C   0  0  0  0  0  0  0  0  0  0  0  0
   23.2690    0.6604    1.8615 C   0  0  0  0  0  0  0  0  0  0  0  0
   21.9049    0.7982    1.7127 C   0  0  0  0  0  0  0  0  0  0  0  0
   18.0077    1.9652   -0.2816 H   0  0  0  0  0  0  0  0  0  0  0  0
   16.3379   -0.2040    2.9876 H   0  0  0  0  0  0  0  0  0  0  0  0
   18.5872   -0.6250    3.8505 H   0  0  0  0  0  0  0  0  0  0  0  0
   20.9738   -0.9683    4.4053 H   0  0  0  0  0  0  0  0  0  0  0  0
   23.3500   -1.1831    4.6300 H   0  0  0  0  0  0  0  0  0  0  0  0
   23.9322    1.1190    1.1399 H   0  0  0  0  0  0  0  0  0  0  0  0
   28.1871   -3.6725    4.9075 N   0  0  0  0  0  0  0  0  0  0  0  0
   27.7456   -2.7191    4.4140 C   0  0  0  0  0  0  0  0  0  0  0  0
   27.1923   -1.5214    3.8166 C   0  0  0  0  0  0  0  0  0  0  0  0
   25.8152   -1.3675    3.6595 C   0  0  0  0  0  0  0  0  0  0  0  0
   25.2612   -0.2211    3.0844 C   0  0  0  0  0  0  0  0  0  0  0  0
   26.1358    0.7537    2.6782 C   0  0  0  0  0  0  0  0  0  0  0  0
   27.5100    0.6197    2.8258 C   0  0  0  0  0  0  0  0  0  0  0  0
   28.0062   -0.5222    3.3957 C   0  0  0  0  0  0  0  0  0  0  0  0
   25.1486   -2.1344    3.9783 H   0  0  0  0  0  0  0  0  0  0  0  0
   25.7483    1.6643    2.2219 H   0  0  0  0  0  0  0  0  0  0  0  0
   28.1893    1.3868    2.5068 H   0  0  0  0  0  0  0  0  0  0  0  0
  -27.5094    2.0476    5.5862 H   0  0  0  0  0  0  0  0  0  0  0  0
   29.0887   -0.6777    3.5383 H   0  0  0  0  0  0  0  0  0  0  0  0
  1  2  2  0
  2  3  2  0
  2  4  1  0
  4  5  2  0
  5  6  1  0
  6  7  2  0
  7  8  1  0
  8  9  2  0
  9 10  1  0
 10 11  2  0
 11 12  1  0
 12 13  2  0
 13 14  1  0
 14 15  2  0
 15  2  1  0
  9  4  1  0
 15 10  1  0
  5 16  1  0
  7 17  1  0
  8 18  1  0
 11 19  1  0
 12 20  1  0
 14 21  1  0
 22 23  2  0
 23 24  2  0
 23 25  1  0
 25 26  2  0
 26 27  1  0
 27 28  2  0
 28 29  1  0
 29 30  2  0
 30 31  1  0
 31 32  2  0
 32 33  1  0
 33 34  2  0
 34 35  1  0
 35 36  2  0
 36 23  1  0
 30 25  1  0
 36 31  1  0
 26 37  1  0
 28 38  1  0
 29 39  1  0
 32 40  1  0
 33 41  1  0
 35 42  1  0
 43 44  2  0
 44 45  2  0
 44 46  1  0
 46 47  2  0
 47 48  1  0
 48 49  2  0
 49 50  1  0
 50 51  2  0
 51 52  1  0
 52 53  2  0
 53 54  1  0
 54 55  2  0
 55 56  1  0
 56 57  2  0
 57 44  1  0
 51 46  1  0
 57 52  1  0
 47 58  1  0
 49 59  1  0
 50 60  1  0
 53 61  1  0
 54 62  1  0
 56 63  1  0
 64 65  3  0
 65 66  1  0
 66 67  2  0
 67 68  1  0
 68 69  2  0
 69 70  1  0
 70 71  2  0
 71 66  1  0
 67 72  1  0
 69 73  1  0
 70 74  1  0
 75 76  2  0
 76 77  2  0
 76 78  1  0
 78 79  2  0
 79 80  1  0
 80 81  2  0
 81 82  1  0
 82 83  2  0
 83 84  1  0
 84 85  2  0
 85 86  1  0
 86 87  2  0
 87 88  1  0
 88 89  2  0
 89 76  1  0
 83 78  1  0
 89 84  1  0
 79 90  1  0
 81 91  1  0
 82 92  1  0
 85 93  1  0
 86 94  1  0
 88 95  1  0
 96 97  2  0
 97 98  2  0
 97 99  1  0
 99100  2  0
100101  1  0
101102  2  0
102103  1  0
103104  2  0
104105  1  0
105106  2  0
106107  1  0
107108  2  0
108109  1  0
109110  2  0
110 97  1  0
104 99  1  0
110105  1  0
100111  1  0
102112  1  0
103113  1  0
106114  1  0
107115  1  0
109116  1  0
117118  2  0
118119  2  0
118120  1  0
120121  2  0
121122  1  0
122123  2  0
123124  1  0
124125  2  0
125126  1  0
126127  2  0
127128  1  0
128129  2  0
129130  1  0
130131  2  0
131118  1  0
125120  1  0
131126  1  0
121132  1  0
123133  1  0
124134  1  0
127135  1  0
128136  1  0
130137  1  0
138139  3  0
139140  1  0
140141  2  0
141142  1  0
142143  2  0
143144  1  0
144145  2  0
145140  1  0
141146  1  0
143147  1  0
144148  1  0
 13 27  1  0
 34 48  1  0
 55 68  1  0
 71 80  1  0
 87101  1  0
108122  1  0
129142  1  0
  6149  1  0
145150  1  0
M  END
