104

O        -15.68550        2.39750        3.44430
S        -16.20140        1.27410        2.59250
O        -16.32320        0.00000        3.33830
C        -17.65420        1.70840        1.74890
C        -18.89420        2.02710        2.26310
C        -19.92530        2.34750        1.40080
C        -19.67920        2.33770        0.05810
C        -18.43930        2.01670       -0.42410
C        -17.36410        1.68550        0.42210
C        -15.99390        1.32970        0.09580
C        -15.37980        1.22800       -1.17070
C        -14.05470        0.88390       -1.26830
C        -13.25870        0.62370       -0.18870
C        -13.85630        0.72170        1.04960
C        -15.19040        1.06770        1.15950
H        -19.05880        2.02680        3.33410
H        -20.45350        2.58030       -0.64380
H        -18.27570        2.01580       -1.50110
H        -15.94970        1.42020       -2.06110
H        -13.58080        0.80640       -2.25970
H        -13.29860        0.53180        1.94460
N         -8.99250       -2.50680        2.37670
C         -9.38870       -1.78480        1.53410
C         -9.90990       -0.90710        0.53130
C        -11.26840       -0.55520        0.58040
C        -11.84760        0.28480       -0.33280
C        -11.03710        0.78300       -1.32250
C         -9.69290        0.44750       -1.38850
C         -9.10800       -0.41040       -0.45150
H        -11.85190       -0.97370        1.37210
H        -11.47880        1.45070       -2.05800
H         -9.06620        0.83840       -2.17740
C         -7.66640       -0.69250       -0.52400
C         -6.80550        0.04240       -1.31240
N         -5.46380       -0.20440       -1.32710
C         -4.92860       -1.18470       -0.56450
C         -5.78690       -1.91230        0.21510
N         -7.12280       -1.65640        0.22130
H         -7.17720        0.82860       -1.92600
H         -5.38830       -2.71050        0.84340
N         -0.33780       -4.49910        1.37520
C         -0.84710       -3.61960        0.79720
C         -1.45860       -2.53060        0.09600
C         -2.85640       -2.41390        0.08900
C         -3.47450       -1.38950       -0.56440
C         -2.65670       -0.46580       -1.22490
C         -1.29260       -0.57550       -1.22060
C         -0.65480       -1.62920       -0.54750
H         -3.45400       -3.15850        0.61410
H         -3.16540        0.33250       -1.73630
H         -0.64300        0.14550       -1.73400
O          4.19320        0.86200        1.55840
S          4.18070        0.49740        0.10380
O          4.08930        1.70430       -0.78170
C          2.96220       -0.68200       -0.28640
C          1.58820       -0.60250       -0.21240
C          0.79630       -1.69380       -0.58150
C          1.44000       -2.80960       -1.00590
C          2.79670       -2.87580       -1.07480
C          3.62320       -1.79850       -0.71270
C          5.05110       -1.69390       -0.72790
C          6.00530       -2.65070       -1.12050
C          7.34920       -2.37730       -1.08140
C          7.85290       -1.16920       -0.66290
C          6.93590       -0.21950       -0.27450
C          5.57090       -0.50450       -0.31690
H          1.07900        0.28480        0.12660
H          0.84210       -3.67440       -1.30030
H          3.22400       -3.81020       -1.42780
H          5.68160       -3.64400       -1.46690
H          8.05000       -3.14380       -1.39400
H          7.23070        0.75210        0.06800
N         12.99270       -2.04330       -3.34530
C         12.34600       -1.63180       -2.47830
C         11.51490       -1.10690       -1.44180
C         10.14040       -1.40210       -1.51320
C          9.28470       -0.86890       -0.61900
C          9.74750       -0.03890        0.36150
C         11.09040        0.23750        0.41860
C         12.02710       -0.29300       -0.48830
H          9.78570       -2.05910       -2.29380
H          9.08420        0.40190        1.08760
H         11.49720        0.89960        1.19420
C         13.41130        0.13170       -0.31810
C         14.52940       -0.58980       -0.59760
N         15.77360       -0.10370       -0.32920
C         15.98160        1.10890        0.22670
C         14.83430        1.82640        0.50460
N         13.61630        1.37090        0.24990
H         14.44160       -1.59550       -0.99900
H         14.95830        2.81700        0.95500
N         19.21760        5.53270        2.55290
C         19.05910        4.52280        2.00590
C         18.85870        3.25620        1.34940
C         17.57990        2.79020        1.10650
C         17.32000        1.59980        0.49440
C         18.41730        0.84130        0.10820
C         19.71530        1.27440        0.33470
C         19.93330        2.49640        0.96270
H         16.76770        3.41560        1.42820
H         18.25300       -0.11270       -0.38280
H         20.57690        0.70410        0.04300
H        -20.89010        2.59300        1.82240
H         20.93100        2.87130        1.15790
