144

O        -22.34710       -5.18700       -2.14420
S        -23.20560       -3.96370       -2.20800
O        -23.35230       -3.43080       -3.60650
C        -24.72270       -4.12840       -1.39070
C        -25.78210       -4.99860       -1.63210
C        -26.90340       -4.95650       -0.85430
C        -26.96740       -4.03780        0.17120
C        -25.91400       -3.20060        0.38170
C        -24.73970       -3.20610       -0.38970
C        -23.53540       -2.40780       -0.26490
C        -23.23150       -1.39200        0.66760
C        -22.00640       -0.76220        0.63110
C        -21.02990       -1.05400       -0.26690
C        -21.33120       -2.05010       -1.18340
C        -22.55240       -2.68940       -1.16070
H        -25.68720       -5.71380       -2.46140
H        -27.86290       -3.98330        0.82060
H        -25.99960       -2.49580        1.19360
H        -23.96660       -1.11540        1.41550
H        -21.81640        0.02480        1.38050
H        -20.62150       -2.35750       -1.93610
O        -17.18570        2.64070        2.30040
S        -16.68760        1.27970        1.89360
O        -16.49600        0.38330        3.05650
C        -17.75910        0.57280        0.67700
C        -19.05090        0.07200        0.79610
C        -19.71790       -0.41250       -0.29710
C        -19.03060       -0.36370       -1.50350
C        -17.75450        0.12920       -1.62740
C        -17.07290        0.62160       -0.49340
C        -15.69950        1.08560       -0.38920
C        -14.69360        1.13650       -1.37680
C        -13.42340        1.48210       -1.06800
C        -13.04040        1.79860        0.20020
C        -13.99900        1.76610        1.18830
C        -15.29200        1.41130        0.86340
H        -19.53210        0.06040        1.74780
H        -19.53270       -0.72780       -2.39650
H        -17.26400        0.14850       -2.58620
H        -14.93270        0.89820       -2.39850
H        -12.65170        1.51720       -1.84850
H        -13.71820        2.02620        2.20020
O         -8.01650        4.62840       -1.03730
S         -7.94240        3.13300       -0.90350
O         -7.81590        2.45180       -2.21570
C         -9.35110        2.57270        0.01300
C        -10.70010        2.49450       -0.35560
C        -11.61970        2.01280        0.54670
C        -11.14360        1.63700        1.78370
C         -9.82510        1.71740        2.13770
C         -8.86560        2.20100        1.22640
C         -7.42780        2.24320        1.36980
C         -6.61220        1.83860        2.43860
C         -5.26120        1.84190        2.38410
C         -4.59600        2.24250        1.27060
C         -5.37010        2.66120        0.17850
C         -6.74440        2.64990        0.26230
H        -11.00960        2.81200       -1.33400
H        -11.88070        1.25530        2.50680
H         -9.49030        1.41080        3.13390
H         -7.07820        1.50810        3.35550
H         -4.69540        1.51810        3.25490
H         -4.86970        2.98830       -0.72060
C         -3.13960        2.17610        1.13890
C         -2.32620        1.67660        2.12490
N         -0.99800        1.54470        1.97840
C         -0.37460        1.90710        0.81940
C         -1.18500        2.41030       -0.16600
N         -2.52740        2.54370       -0.01830
H         -2.79160        1.37440        3.08160
H         -0.70760        2.71220       -1.10790
O          4.52000        3.45330       -2.05670
S          4.29840        1.99480       -1.77770
O          3.94030        1.21460       -2.99360
C          3.14860        1.73000       -0.50990
C          1.80000        1.99100       -0.44110
C          1.05940        1.69560        0.69050
C          1.74280        1.13350        1.73060
C          3.06890        0.87590        1.66370
C          3.83130        1.16710        0.52680
C          5.22880        0.93430        0.29030
C          6.19050        0.35390        1.13920
C          7.48740        0.18500        0.74190
C          7.94830        0.57290       -0.52140
C          7.01270        1.13920       -1.35030
C          5.69490        1.30540       -0.93550
H          1.30570        2.43490       -1.29260
H          1.19220        0.89020        2.62990
H          3.53500        0.42280        2.55240
H          5.89790        0.02640        2.14950
H          8.22950       -0.26860        1.39290
H          7.29010        1.46580       -2.34450
O         13.21750        1.52590        1.55360
S         12.99420        0.20160        0.92420
O         12.93130       -0.90900        1.93550
C         11.62650        0.19070       -0.14770
C         10.30370        0.41200        0.11540
C          9.33640        0.35590       -0.88980
C          9.80930        0.06780       -2.13790
C         11.12160       -0.15090       -2.40170
C         12.09810       -0.09590       -1.38740
C         13.52850       -0.30430       -1.47110
C         14.32150       -0.61640       -2.59010
C         15.68010       -0.78270       -2.47380
C         16.35030       -0.65930       -1.27940
C         15.58160       -0.35480       -0.18200
C         14.20800       -0.18550       -0.29230
H          9.99020        0.63990        1.11110
H          9.09710        0.01700       -2.95530
H         11.43780       -0.37220       -3.41150
H         13.83990       -0.73190       -3.57250
H         16.26220       -1.02670       -3.36430
H         16.03940       -0.24230        0.79640
O         21.22810        1.81570        0.78150
S         21.06310        0.34050        1.02540
O         20.79470        0.03710        2.45820
C         19.89930       -0.36710       -0.05680
C         18.52570       -0.15920       -0.18960
C         17.79550       -0.84270       -1.12900
C         18.46670       -1.73490       -1.93040
C         19.81590       -1.94130       -1.80230
C         20.58180       -1.24790       -0.84090
C         21.99780       -1.35100       -0.56590
C         22.96390       -2.17060       -1.18760
C         24.26830       -2.13920       -0.78240
C         24.72630       -1.32540        0.23960
C         23.79660       -0.52730        0.84930
C         22.46480       -0.55640        0.43770
H         18.03230        0.54410        0.44810
H         17.91100       -2.29400       -2.68940
H         20.29880       -2.65650       -2.46170
H         22.66210       -2.84150       -2.00890
H         25.00500       -2.76750       -1.26530
H         24.06140        0.12800        1.64260
C         26.13310       -1.34270        0.64240
C         26.67470       -0.53800        1.60750
N         27.97760       -0.57140        1.96190
C         28.81350       -1.45040        1.33280
C         28.27650       -2.26190        0.36330
N         26.97700       -2.20000        0.03780
H         26.03700        0.16840        2.11710
H         28.93230       -2.95660       -0.13240
H        -27.75460       -5.61530       -0.99460
H         29.85070       -1.45500        1.63430
