150

C        -25.70970        3.01440       -0.92930
C        -25.18190        4.11730       -1.58800
C        -23.81830        4.17070       -1.74190
C        -22.96920        3.16640       -1.26310
C        -21.60540        3.24100       -1.43440
C        -20.75040        2.26460       -0.97860
C        -21.27740        1.16670       -0.32540
C        -20.45830        0.17600        0.14660
C        -21.05870       -0.90520        0.80890
C        -22.41790       -0.97110        0.97730
C        -23.24810        0.01950        0.50330
C        -24.62690       -0.05820        0.67760
C        -25.44720        0.93600        0.20090
C        -24.89250        2.01750       -0.45160
C        -23.52160        2.08250       -0.61340
C        -22.67250        1.10100       -0.15550
H        -25.86200        4.88930       -1.95570
H        -23.37860        5.01360       -2.24500
H        -21.13390        4.07790       -1.93780
H        -19.67570        2.34990       -1.11150
H        -20.38600       -1.68330        1.17560
H        -22.88710       -1.79640        1.48680
H        -25.05690       -0.91240        1.19440
H        -26.51020        0.87090        0.33310
O        -15.45440        0.94710        3.00770
S        -15.54080       -0.22880        2.10850
O        -15.70400       -1.51850        2.86620
C        -16.82870       -0.05720        0.90450
C        -18.20400        0.02830        1.04840
C        -19.00780        0.15640       -0.05590
C        -18.39710        0.19500       -1.28210
C        -17.05330        0.10910       -1.40490
C        -16.18880       -0.02400       -0.30270
C        -14.76680       -0.16060       -0.26350
C        -13.85340       -0.19620       -1.32500
C        -12.52270       -0.36560       -1.12720
C        -11.97460       -0.51510        0.12520
C        -12.88030       -0.47790        1.17660
C        -14.22440       -0.30660        0.97690
H        -18.59560       -0.01410        2.06880
H        -19.05910        0.29320       -2.16340
H        -16.63630        0.14550       -2.42180
H        -14.17870       -0.08670       -2.36530
H        -11.80950       -0.39320       -1.96110
H        -12.47880       -0.59090        2.18020
O         -6.75810       -0.41230       -2.39650
S         -6.77200        0.01540       -0.98140
O         -6.58090        1.50490       -0.82800
C         -8.23070       -0.50070       -0.16040
C         -9.58050       -0.22940       -0.42600
C        -10.55790       -0.73150        0.35620
C        -10.16430       -1.52300        1.42880
C         -8.86300       -1.79060        1.69190
C         -7.82590       -1.27480        0.88410
C         -6.39290       -1.47230        0.99160
C         -5.68260       -2.22660        1.94670
C         -4.31040       -2.30860        1.87460
C         -3.57810       -1.69410        0.91630
C         -4.25360       -0.95400       -0.02600
C         -5.64240       -0.86070        0.03550
H         -9.83000        0.39210       -1.27130
H        -10.92160       -1.93610        2.07450
H         -8.60360       -2.41660        2.54640
H         -6.21350       -2.74320        2.74360
H         -3.79510       -2.92000        2.64150
H         -3.74700       -0.43830       -0.80900
C         -2.10670       -1.76340        0.89940
C         -1.34390       -2.27920        1.91930
N         -0.00550       -2.26490        1.88690
C          0.68820       -1.73070        0.82460
C         -0.08640       -1.22300       -0.18460
N         -1.44320       -1.24320       -0.14050
H         -1.86550       -2.70790        2.78180
H          0.34970       -0.75280       -1.04450
C          2.12510       -1.60650        0.96420
C          2.57250       -1.20990        2.24760
C          3.88550       -1.00760        2.52770
C          4.83010       -1.19820        1.51620
C          6.16570       -0.96630        1.79540
C          7.11720       -1.12900        0.79770
C          6.76460       -1.52070       -0.46860
C          7.71020       -1.68230       -1.43700
C          7.27700       -2.09660       -2.70450
C          5.96550       -2.33090       -2.98080
C          5.01320       -2.15290       -1.97160
C          3.68050       -2.37230       -2.23600
C          2.72550       -2.19080       -1.26010
C          3.05960       -1.78990        0.00620
C          4.43010       -1.58950        0.25680
C          5.40400       -1.74500       -0.70740
H          1.84590       -1.06360        3.03840
H          4.24080       -0.70800        3.50800
H          6.44890       -0.65500        2.79690
H          8.16100       -0.93050        1.02040
H          8.04970       -2.23250       -3.46740
H          5.62160       -2.65540       -3.96320
H          3.41710       -2.69160       -3.24330
H          1.69220       -2.41170       -1.47950
O         12.30160       -1.78280        2.23580
S         12.58610       -2.05770        0.79880
O         12.95130       -3.49340        0.55710
C         11.30450       -1.52520       -0.25240
C          9.99580       -1.92590       -0.34980
C          9.10770       -1.39510       -1.24230
C          9.66240       -0.38940       -2.06490
C         10.95310        0.00840       -1.97080
C         11.84150       -0.55600       -1.04180
C         13.22000       -0.26090       -0.81680
C         14.05260        0.67610       -1.46730
C         15.36150        0.82700       -1.12980
C         15.93080        0.07530       -0.14050
C         15.17490       -0.83810        0.51870
C         13.83590       -0.98670        0.16590
H          9.58880       -2.71610        0.30040
H          8.97510        0.05720       -2.79600
H         11.28530        0.80390       -2.66020
H         13.62910        1.29460       -2.26620
H         15.96040        1.55670       -1.65430
H         15.55020       -1.45320        1.29680
O         19.96770        4.12410        1.03050
S         20.31350        3.10720       -0.02050
O         20.23910        3.68360       -1.40020
C         19.29360        1.66840        0.12930
C         17.93520        1.50780       -0.05940
C         17.34480        0.27850        0.11420
C         18.18560       -0.75230        0.48380
C         19.53440       -0.60130        0.67260
C         20.14060        0.66120        0.49040
C         21.53090        1.01360        0.59070
C         22.64130        0.22000        0.90050
C         23.92570        0.69060        0.92610
C         24.18840        1.99360        0.64320
C         23.10850        2.82130        0.32940
C         21.82620        2.31780        0.31230
H         17.36150        2.37290       -0.34160
H         17.69970       -1.71770        0.61940
H         20.13990       -1.46260        0.96390
H         22.49440       -0.84090        1.13640
H         24.75700        0.03070        1.17880
H         23.30620        3.85320        0.10030
C         25.52990        2.57190        0.63330
C         26.64070        1.81910        0.89450
N         27.87110        2.40710        0.86330
C         28.06010        3.70440        0.58460
C         26.92490        4.46000        0.31930
N         25.69460        3.87480        0.35180
H         26.60540        0.77580        1.12610
H         27.03350        5.49320        0.09120
H        -26.77290        2.96420       -0.80460
H         29.02920        4.17580        0.55890
