
     RDKit          3D

150171  0  0  0  0  0  0  0  0999 V2000
  -25.7097    3.0144   -0.9293 C   0  0  0  0  0  0  0  0  0  0  0  0
  -25.1819    4.1173   -1.5880 C   0  0  0  0  0  0  0  0  0  0  0  0
  -23.8183    4.1707   -1.7419 C   0  0  0  0  0  0  0  0  0  0  0  0
  -22.9692    3.1664   -1.2631 C   0  0  0  0  0  0  0  0  0  0  0  0
  -21.6054    3.2410   -1.4344 C   0  0  0  0  0  0  0  0  0  0  0  0
  -20.7504    2.2646   -0.9786 C   0  0  0  0  0  0  0  0  0  0  0  0
  -21.2774    1.1667   -0.3254 C   0  0  0  0  0  0  0  0  0  0  0  0
  -20.4583    0.1760    0.1466 C   0  0  0  0  0  0  0  0  0  0  0  0
  -21.0587   -0.9052    0.8089 C   0  0  0  0  0  0  0  0  0  0  0  0
  -22.4179   -0.9711    0.9773 C   0  0  0  0  0  0  0  0  0  0  0  0
  -23.2481    0.0195    0.5033 C   0  0  0  0  0  0  0  0  0  0  0  0
  -24.6269   -0.0582    0.6776 C   0  0  0  0  0  0  0  0  0  0  0  0
  -25.4472    0.9360    0.2009 C   0  0  0  0  0  0  0  0  0  0  0  0
  -24.8925    2.0175   -0.4516 C   0  0  0  0  0  0  0  0  0  0  0  0
  -23.5216    2.0825   -0.6134 C   0  0  0  0  0  0  0  0  0  0  0  0
  -22.6725    1.1010   -0.1555 C   0  0  0  0  0  0  0  0  0  0  0  0
  -25.8620    4.8893   -1.9557 H   0  0  0  0  0  0  0  0  0  0  0  0
  -23.3786    5.0136   -2.2450 H   0  0  0  0  0  0  0  0  0  0  0  0
  -21.1339    4.0779   -1.9378 H   0  0  0  0  0  0  0  0  0  0  0  0
  -19.6757    2.3499   -1.1115 H   0  0  0  0  0  0  0  0  0  0  0  0
  -20.3860   -1.6833    1.1756 H   0  0  0  0  0  0  0  0  0  0  0  0
  -22.8871   -1.7964    1.4868 H   0  0  0  0  0  0  0  0  0  0  0  0
  -25.0569   -0.9124    1.1944 H   0  0  0  0  0  0  0  0  0  0  0  0
  -26.5102    0.8709    0.3331 H   0  0  0  0  0  0  0  0  0  0  0  0
  -15.4544    0.9471    3.0077 O   0  0  0  0  0  0  0  0  0  0  0  0
  -15.5408   -0.2288    2.1085 S   0  0  0  0  0  0  0  0  0  0  0  0
  -15.7040   -1.5185    2.8662 O   0  0  0  0  0  0  0  0  0  0  0  0
  -16.8287   -0.0572    0.9045 C   0  0  0  0  0  0  0  0  0  0  0  0
  -18.2040    0.0283    1.0484 C   0  0  0  0  0  0  0  0  0  0  0  0
  -19.0078    0.1564   -0.0559 C   0  0  0  0  0  0  0  0  0  0  0  0
  -18.3971    0.1950   -1.2821 C   0  0  0  0  0  0  0  0  0  0  0  0
  -17.0533    0.1091   -1.4049 C   0  0  0  0  0  0  0  0  0  0  0  0
  -16.1888   -0.0240   -0.3027 C   0  0  0  0  0  0  0  0  0  0  0  0
  -14.7668   -0.1606   -0.2635 C   0  0  0  0  0  0  0  0  0  0  0  0
  -13.8534   -0.1962   -1.3250 C   0  0  0  0  0  0  0  0  0  0  0  0
  -12.5227   -0.3656   -1.1272 C   0  0  0  0  0  0  0  0  0  0  0  0
  -11.9746   -0.5151    0.1252 C   0  0  0  0  0  0  0  0  0  0  0  0
  -12.8803   -0.4779    1.1766 C   0  0  0  0  0  0  0  0  0  0  0  0
  -14.2244   -0.3066    0.9769 C   0  0  0  0  0  0  0  0  0  0  0  0
  -18.5956   -0.0141    2.0688 H   0  0  0  0  0  0  0  0  0  0  0  0
  -19.0591    0.2932   -2.1634 H   0  0  0  0  0  0  0  0  0  0  0  0
  -16.6363    0.1455   -2.4218 H   0  0  0  0  0  0  0  0  0  0  0  0
  -14.1787   -0.0867   -2.3653 H   0  0  0  0  0  0  0  0  0  0  0  0
  -11.8095   -0.3932   -1.9611 H   0  0  0  0  0  0  0  0  0  0  0  0
  -12.4788   -0.5909    2.1802 H   0  0  0  0  0  0  0  0  0  0  0  0
   -6.7581   -0.4123   -2.3965 O   0  0  0  0  0  0  0  0  0  0  0  0
   -6.7720    0.0154   -0.9814 S   0  0  0  0  0  0  0  0  0  0  0  0
   -6.5809    1.5049   -0.8280 O   0  0  0  0  0  0  0  0  0  0  0  0
   -8.2307   -0.5007   -0.1604 C   0  0  0  0  0  0  0  0  0  0  0  0
   -9.5805   -0.2294   -0.4260 C   0  0  0  0  0  0  0  0  0  0  0  0
  -10.5579   -0.7315    0.3562 C   0  0  0  0  0  0  0  0  0  0  0  0
  -10.1643   -1.5230    1.4288 C   0  0  0  0  0  0  0  0  0  0  0  0
   -8.8630   -1.7906    1.6919 C   0  0  0  0  0  0  0  0  0  0  0  0
   -7.8259   -1.2748    0.8841 C   0  0  0  0  0  0  0  0  0  0  0  0
   -6.3929   -1.4723    0.9916 C   0  0  0  0  0  0  0  0  0  0  0  0
   -5.6826   -2.2266    1.9467 C   0  0  0  0  0  0  0  0  0  0  0  0
   -4.3104   -2.3086    1.8746 C   0  0  0  0  0  0  0  0  0  0  0  0
   -3.5781   -1.6941    0.9163 C   0  0  0  0  0  0  0  0  0  0  0  0
   -4.2536   -0.9540   -0.0260 C   0  0  0  0  0  0  0  0  0  0  0  0
   -5.6424   -0.8607    0.0355 C   0  0  0  0  0  0  0  0  0  0  0  0
   -9.8300    0.3921   -1.2713 H   0  0  0  0  0  0  0  0  0  0  0  0
  -10.9216   -1.9361    2.0745 H   0  0  0  0  0  0  0  0  0  0  0  0
   -8.6036   -2.4166    2.5464 H   0  0  0  0  0  0  0  0  0  0  0  0
   -6.2135   -2.7432    2.7436 H   0  0  0  0  0  0  0  0  0  0  0  0
   -3.7951   -2.9200    2.6415 H   0  0  0  0  0  0  0  0  0  0  0  0
   -3.7470   -0.4383   -0.8090 H   0  0  0  0  0  0  0  0  0  0  0  0
   -2.1067   -1.7634    0.8994 C   0  0  0  0  0  0  0  0  0  0  0  0
   -1.3439   -2.2792    1.9193 C   0  0  0  0  0  0  0  0  0  0  0  0
   -0.0055   -2.2649    1.8869 N   0  0  0  0  0  0  0  0  0  0  0  0
    0.6882   -1.7307    0.8246 C   0  0  0  0  0  0  0  0  0  0  0  0
   -0.0864   -1.2230   -0.1846 C   0  0  0  0  0  0  0  0  0  0  0  0
   -1.4432   -1.2432   -0.1405 N   0  0  0  0  0  0  0  0  0  0  0  0
   -1.8655   -2.7079    2.7818 H   0  0  0  0  0  0  0  0  0  0  0  0
    0.3497   -0.7528   -1.0445 H   0  0  0  0  0  0  0  0  0  0  0  0
    2.1251   -1.6065    0.9642 C   0  0  0  0  0  0  0  0  0  0  0  0
    2.5725   -1.2099    2.2476 C   0  0  0  0  0  0  0  0  0  0  0  0
    3.8855   -1.0076    2.5277 C   0  0  0  0  0  0  0  0  0  0  0  0
    4.8301   -1.1982    1.5162 C   0  0  0  0  0  0  0  0  0  0  0  0
    6.1657   -0.9663    1.7954 C   0  0  0  0  0  0  0  0  0  0  0  0
    7.1172   -1.1290    0.7977 C   0  0  0  0  0  0  0  0  0  0  0  0
    6.7646   -1.5207   -0.4686 C   0  0  0  0  0  0  0  0  0  0  0  0
    7.7102   -1.6823   -1.4370 C   0  0  0  0  0  0  0  0  0  0  0  0
    7.2770   -2.0966   -2.7045 C   0  0  0  0  0  0  0  0  0  0  0  0
    5.9655   -2.3309   -2.9808 C   0  0  0  0  0  0  0  0  0  0  0  0
    5.0132   -2.1529   -1.9716 C   0  0  0  0  0  0  0  0  0  0  0  0
    3.6805   -2.3723   -2.2360 C   0  0  0  0  0  0  0  0  0  0  0  0
    2.7255   -2.1908   -1.2601 C   0  0  0  0  0  0  0  0  0  0  0  0
    3.0596   -1.7899    0.0062 C   0  0  0  0  0  0  0  0  0  0  0  0
    4.4301   -1.5895    0.2568 C   0  0  0  0  0  0  0  0  0  0  0  0
    5.4040   -1.7450   -0.7074 C   0  0  0  0  0  0  0  0  0  0  0  0
    1.8459   -1.0636    3.0384 H   0  0  0  0  0  0  0  0  0  0  0  0
    4.2408   -0.7080    3.5080 H   0  0  0  0  0  0  0  0  0  0  0  0
    6.4489   -0.6550    2.7969 H   0  0  0  0  0  0  0  0  0  0  0  0
    8.1610   -0.9305    1.0204 H   0  0  0  0  0  0  0  0  0  0  0  0
    8.0497   -2.2325   -3.4674 H   0  0  0  0  0  0  0  0  0  0  0  0
    5.6216   -2.6554   -3.9632 H   0  0  0  0  0  0  0  0  0  0  0  0
    3.4171   -2.6916   -3.2433 H   0  0  0  0  0  0  0  0  0  0  0  0
    1.6922   -2.4117   -1.4795 H   0  0  0  0  0  0  0  0  0  0  0  0
   12.3016   -1.7828    2.2358 O   0  0  0  0  0  0  0  0  0  0  0  0
   12.5861   -2.0577    0.7988 S   0  0  0  0  0  0  0  0  0  0  0  0
   12.9513   -3.4934    0.5571 O   0  0  0  0  0  0  0  0  0  0  0  0
   11.3045   -1.5252   -0.2524 C   0  0  0  0  0  0  0  0  0  0  0  0
    9.9958   -1.9259   -0.3498 C   0  0  0  0  0  0  0  0  0  0  0  0
    9.1077   -1.3951   -1.2423 C   0  0  0  0  0  0  0  0  0  0  0  0
    9.6624   -0.3894   -2.0649 C   0  0  0  0  0  0  0  0  0  0  0  0
   10.9531    0.0084   -1.9708 C   0  0  0  0  0  0  0  0  0  0  0  0
   11.8415   -0.5560   -1.0418 C   0  0  0  0  0  0  0  0  0  0  0  0
   13.2200   -0.2609   -0.8168 C   0  0  0  0  0  0  0  0  0  0  0  0
   14.0526    0.6761   -1.4673 C   0  0  0  0  0  0  0  0  0  0  0  0
   15.3615    0.8270   -1.1298 C   0  0  0  0  0  0  0  0  0  0  0  0
   15.9308    0.0753   -0.1405 C   0  0  0  0  0  0  0  0  0  0  0  0
   15.1749   -0.8381    0.5187 C   0  0  0  0  0  0  0  0  0  0  0  0
   13.8359   -0.9867    0.1659 C   0  0  0  0  0  0  0  0  0  0  0  0
    9.5888   -2.7161    0.3004 H   0  0  0  0  0  0  0  0  0  0  0  0
    8.9751    0.0572   -2.7960 H   0  0  0  0  0  0  0  0  0  0  0  0
   11.2853    0.8039   -2.6602 H   0  0  0  0  0  0  0  0  0  0  0  0
   13.6291    1.2946   -2.2662 H   0  0  0  0  0  0  0  0  0  0  0  0
   15.9604    1.5567   -1.6543 H   0  0  0  0  0  0  0  0  0  0  0  0
   15.5502   -1.4532    1.2968 H   0  0  0  0  0  0  0  0  0  0  0  0
   19.9677    4.1241    1.0305 O   0  0  0  0  0  0  0  0  0  0  0  0
   20.3135    3.1072   -0.0205 S   0  0  0  0  0  0  0  0  0  0  0  0
   20.2391    3.6836   -1.4002 O   0  0  0  0  0  0  0  0  0  0  0  0
   19.2936    1.6684    0.1293 C   0  0  0  0  0  0  0  0  0  0  0  0
   17.9352    1.5078   -0.0594 C   0  0  0  0  0  0  0  0  0  0  0  0
   17.3448    0.2785    0.1142 C   0  0  0  0  0  0  0  0  0  0  0  0
   18.1856   -0.7523    0.4838 C   0  0  0  0  0  0  0  0  0  0  0  0
   19.5344   -0.6013    0.6726 C   0  0  0  0  0  0  0  0  0  0  0  0
   20.1406    0.6612    0.4904 C   0  0  0  0  0  0  0  0  0  0  0  0
   21.5309    1.0136    0.5907 C   0  0  0  0  0  0  0  0  0  0  0  0
   22.6413    0.2200    0.9005 C   0  0  0  0  0  0  0  0  0  0  0  0
   23.9257    0.6906    0.9261 C   0  0  0  0  0  0  0  0  0  0  0  0
   24.1884    1.9936    0.6432 C   0  0  0  0  0  0  0  0  0  0  0  0
   23.1085    2.8213    0.3294 C   0  0  0  0  0  0  0  0  0  0  0  0
   21.8262    2.3178    0.3123 C   0  0  0  0  0  0  0  0  0  0  0  0
   17.3615    2.3729   -0.3416 H   0  0  0  0  0  0  0  0  0  0  0  0
   17.6997   -1.7177    0.6194 H   0  0  0  0  0  0  0  0  0  0  0  0
   20.1399   -1.4626    0.9639 H   0  0  0  0  0  0  0  0  0  0  0  0
   22.4944   -0.8409    1.1364 H   0  0  0  0  0  0  0  0  0  0  0  0
   24.7570    0.0307    1.1788 H   0  0  0  0  0  0  0  0  0  0  0  0
   23.3062    3.8532    0.1003 H   0  0  0  0  0  0  0  0  0  0  0  0
   25.5299    2.5719    0.6333 C   0  0  0  0  0  0  0  0  0  0  0  0
   26.6407    1.8191    0.8945 C   0  0  0  0  0  0  0  0  0  0  0  0
   27.8711    2.4071    0.8633 N   0  0  0  0  0  0  0  0  0  0  0  0
   28.0601    3.7044    0.5846 C   0  0  0  0  0  0  0  0  0  0  0  0
   26.9249    4.4600    0.3193 C   0  0  0  0  0  0  0  0  0  0  0  0
   25.6946    3.8748    0.3518 N   0  0  0  0  0  0  0  0  0  0  0  0
   26.6054    0.7758    1.1261 H   0  0  0  0  0  0  0  0  0  0  0  0
   27.0335    5.4932    0.0912 H   0  0  0  0  0  0  0  0  0  0  0  0
  -26.7729    2.9642   -0.8046 H   0  0  0  0  0  0  0  0  0  0  0  0
   29.0292    4.1758    0.5589 H   0  0  0  0  0  0  0  0  0  0  0  0
  1  2  2  0
  2  3  1  0
  3  4  2  0
  4  5  1  0
  5  6  2  0
  6  7  1  0
  7  8  2  0
  8  9  1  0
  9 10  2  0
 10 11  1  0
 11 12  2  0
 12 13  1  0
 13 14  2  0
 14 15  1  0
 15 16  2  0
 14  1  1  0
 15  4  1  0
 16  7  1  0
 16 11  1  0
  2 17  1  0
  3 18  1  0
  5 19  1  0
  6 20  1  0
  9 21  1  0
 10 22  1  0
 12 23  1  0
 13 24  1  0
 25 26  2  0
 26 27  2  0
 26 28  1  0
 28 29  2  0
 29 30  1  0
 30 31  2  0
 31 32  1  0
 32 33  2  0
 33 34  1  0
 34 35  2  0
 35 36  1  0
 36 37  2  0
 37 38  1  0
 38 39  2  0
 39 26  1  0
 33 28  1  0
 39 34  1  0
 29 40  1  0
 31 41  1  0
 32 42  1  0
 35 43  1  0
 36 44  1  0
 38 45  1  0
 46 47  2  0
 47 48  2  0
 47 49  1  0
 49 50  2  0
 50 51  1  0
 51 52  2  0
 52 53  1  0
 53 54  2  0
 54 55  1  0
 55 56  2  0
 56 57  1  0
 57 58  2  0
 58 59  1  0
 59 60  2  0
 60 47  1  0
 54 49  1  0
 60 55  1  0
 50 61  1  0
 52 62  1  0
 53 63  1  0
 56 64  1  0
 57 65  1  0
 59 66  1  0
 67 68  2  0
 68 69  1  0
 69 70  2  0
 70 71  1  0
 71 72  2  0
 72 67  1  0
 68 73  1  0
 71 74  1  0
 75 76  2  0
 76 77  1  0
 77 78  2  0
 78 79  1  0
 79 80  2  0
 80 81  1  0
 81 82  2  0
 82 83  1  0
 83 84  2  0
 84 85  1  0
 85 86  2  0
 86 87  1  0
 87 88  2  0
 88 89  1  0
 89 90  2  0
 88 75  1  0
 89 78  1  0
 90 81  1  0
 90 85  1  0
 76 91  1  0
 77 92  1  0
 79 93  1  0
 80 94  1  0
 83 95  1  0
 84 96  1  0
 86 97  1  0
 87 98  1  0
 99100  2  0
100101  2  0
100102  1  0
102103  2  0
103104  1  0
104105  2  0
105106  1  0
106107  2  0
107108  1  0
108109  2  0
109110  1  0
110111  2  0
111112  1  0
112113  2  0
113100  1  0
107102  1  0
113108  1  0
103114  1  0
105115  1  0
106116  1  0
109117  1  0
110118  1  0
112119  1  0
120121  2  0
121122  2  0
121123  1  0
123124  2  0
124125  1  0
125126  2  0
126127  1  0
127128  2  0
128129  1  0
129130  2  0
130131  1  0
131132  2  0
132133  1  0
133134  2  0
134121  1  0
128123  1  0
134129  1  0
124135  1  0
126136  1  0
127137  1  0
130138  1  0
131139  1  0
133140  1  0
141142  2  0
142143  1  0
143144  2  0
144145  1  0
145146  2  0
146141  1  0
142147  1  0
145148  1  0
  8 30  1  0
 37 51  1  0
 58 67  1  0
 70 75  1  0
 82104  1  0
111125  1  0
132141  1  0
  1149  1  0
144150  1  0
M  END
