170

O        -26.82000        3.34580       -3.17960
S        -26.65620        3.83290       -1.77200
O        -25.71930        5.00120       -1.68020
C        -28.19560        4.13790       -1.01400
C        -29.14050        5.07120       -1.33140
C        -30.31010        5.14680       -0.60540
C        -30.45220        4.24980        0.42210
C        -29.50470        3.32270        0.73210
C        -28.30090        3.22480        0.00530
C        -27.18590        2.34890        0.17530
C        -27.00320        1.34190        1.14980
C        -25.82370        0.60980        1.17100
C        -24.81410        0.80540        0.29330
C        -24.99130        1.79410       -0.66860
C        -26.15100        2.52810       -0.70250
H        -29.00760        5.77160       -2.14590
H        -31.36780        4.26520        1.02710
H        -29.69020        2.65010        1.55800
H        -27.76600        1.12630        1.89830
H        -25.78220       -0.15150        1.97450
H        -24.19750        1.99060       -1.39840
O        -21.12080       -2.84310        3.24440
S        -20.60530       -1.56070        2.65610
O        -20.28040       -0.55510        3.71650
C        -21.65330       -0.93440        1.41650
C        -22.88870       -0.33960        1.48000
C        -23.56100        0.09180        0.37030
C        -22.92010       -0.11670       -0.84000
C        -21.69120       -0.70820       -0.91140
C        -21.00930       -1.13830        0.22740
C        -19.68250       -1.66040        0.33810
C        -18.74350       -1.87370       -0.68170
C        -17.46550       -2.27280       -0.39100
C        -17.03620       -2.48680        0.91070
C        -17.92750       -2.29410        1.90510
C        -19.22760       -1.88700        1.60920
H        -23.40420       -0.18450        2.42970
H        -23.42140        0.19890       -1.75110
H        -21.24710       -0.83280       -1.91680
H        -19.01050       -1.72960       -1.73690
H        -16.77020       -2.40400       -1.21210
H        -17.64110       -2.45570        2.92650
O        -12.38390       -0.85360        3.90570
S        -12.37630       -2.30820        3.52990
O        -12.53730       -3.21140        4.71430
C        -13.52270       -2.66430        2.26600
C        -14.87300       -2.46230        2.18030
C        -15.62600       -2.81960        1.09290
C        -14.91510       -3.42850        0.05290
C        -13.56510       -3.62590        0.14700
C        -12.83030       -3.24020        1.26080
C        -11.39640       -3.26240        1.43740
C        -10.40350       -3.64940        0.53000
C         -9.07140       -3.46840        0.78910
C         -8.61310       -2.88400        1.98510
C         -9.58090       -2.51170        2.87900
C        -10.94000       -2.70170        2.59790
H        -15.39010       -1.99130        3.01170
H        -15.48570       -3.74430       -0.80870
H        -13.09290       -4.11450       -0.71840
H        -10.68290       -4.11260       -0.43080
H         -8.29370       -3.76070        0.08910
H         -9.29820       -2.06040        3.82310
O         -3.76160       -2.37430       -1.12310
S         -4.07020       -1.28620       -0.12180
O         -4.48070       -0.01850       -0.77420
C         -5.16280       -1.84020        1.10100
C         -6.48250       -2.13660        1.00590
C         -7.20590       -2.57370        2.12670
C         -6.51530       -2.68250        3.28360
C         -5.18640       -2.38680        3.38630
C         -4.46100       -1.94470        2.26210
C         -3.07860       -1.51440        2.17430
C         -2.07760       -1.47910        3.17220
C         -0.81690       -1.01190        2.88140
C         -0.45300       -0.56010        1.64330
C         -1.41740       -0.59030        0.66030
C         -2.67620       -1.06210        0.95720
H         -7.03470       -2.05620        0.08250
H         -7.03310       -3.02290        4.20020
H         -4.68580       -2.48960        4.32820
H         -2.31490       -1.82540        4.16830
H         -0.08430       -1.00090        3.67650
H         -1.19930       -0.25630       -0.32990
O          2.85550        3.81790       -0.41610
S          3.07780        2.46720       -1.02390
O          2.54210        2.35750       -2.42270
C          2.46070        1.18690        0.00850
C          1.14920        0.89980        0.42900
C          0.92220       -0.15130        1.28830
C          2.00770       -0.87510        1.69560
C          3.28890       -0.60840        1.29110
C          3.54090        0.46750        0.40510
C          4.81480        0.89950       -0.13960
C          6.09110        0.31450        0.03550
C          7.15080        0.84480       -0.61530
C          7.09140        1.95400       -1.46630
C          5.88320        2.50950       -1.63060
C          4.76440        1.97780       -0.96960
H          0.34510        1.52130        0.05960
H          1.80820       -1.70630        2.38950
H          4.12570       -1.20790        1.62950
H          6.19770       -0.54310        0.69120
H          8.14510        0.39040       -0.48070
H          5.74430        3.36420       -2.26760
O         11.42340        0.14180       -5.05070
S         11.64280        0.28700       -3.56700
O         11.68880       -0.99790       -2.84520
C         10.46120        1.41900       -2.90110
C          9.16150        1.21540       -2.51880
C          8.36850        2.29420       -2.11490
C          8.93490        3.52620       -2.12880
C         10.27560        3.73170       -2.52080
C         11.06190        2.64420       -2.90970
C         12.52450        2.58010       -3.10430
C         13.49130        3.58460       -2.88470
C         14.83300        3.24830       -2.81970
C         15.30110        1.97820       -2.95910
C         14.35070        0.99150       -3.19160
C         13.02810        1.32720       -3.25240
H          8.74600        0.23520       -2.52470
H          8.32430        4.37570       -1.83280
H         10.68160        4.72470       -2.51500
H         13.18140        4.60820       -2.77310
H         15.54620        4.05470       -2.63770
H         14.66410       -0.01680       -3.34410
O         20.76290        3.66420       -1.64490
S         20.67950        2.42130       -2.48740
O         21.13810        2.65530       -3.88470
C         19.06140        1.73050       -2.44060
C         17.82200        2.26340       -2.82230
C         16.68500        1.54600       -2.68430
C         16.83220        0.24550       -2.14370
C         18.03880       -0.27120       -1.77400
C         19.21430        0.48660       -1.91860
C         20.56350        0.12050       -1.52130
C         21.01060       -1.07560       -0.92200
C         22.31670       -1.24180       -0.56920
C         23.27110       -0.25630       -0.77420
C         22.85680        0.89950       -1.35040
C         21.50980        1.08070       -1.72080
H         17.80490        3.25830       -3.22920
H         15.93550       -0.34210       -2.01530
H         18.09940       -1.29100       -1.36470
H         20.28060       -1.88310       -0.74530
H         22.65960       -2.16340       -0.10660
H         23.52510        1.71650       -1.54880
O         27.71510        1.71860        2.46170
S         28.10230        1.15520        1.11680
O         28.48380        2.20660        0.14180
C         26.80790        0.14010        0.48360
C         25.50500        0.47930        0.08970
C         24.65590       -0.49740       -0.35900
C         25.14830       -1.78860       -0.39760
C         26.41780       -2.12040       -0.01480
C         27.30190       -1.12400        0.45070
C         28.66750       -1.27110        0.89180
C         29.50420       -2.40740        0.97980
C         30.77350       -2.39010        1.40100
C         31.36740       -1.20500        1.79200
C         30.59740       -0.05130        1.72880
C         29.28870       -0.11660        1.28600
H         25.19570        1.49100        0.14370
H         24.47440       -2.57720       -0.76570
H         26.76240       -3.14160       -0.06430
H         29.05520       -3.36550        0.67920
H         31.32890       -3.33810        1.42580
H         31.02730        0.89310        2.02480
H        -31.06780        5.89710       -0.84100
H         32.38560       -1.23250        2.12610
