124

N        -20.90280        4.11370        2.00710
C        -21.41650        3.14080        1.60440
C        -22.07390        1.93990        1.12810
C        -23.43810        1.82530        1.10230
C        -24.10640        0.68770        0.67190
C        -23.31590       -0.35630        0.25730
C        -21.92850       -0.26130        0.27490
C        -21.27560        0.89980        0.71460
H        -24.04070        2.67940        1.44250
H        -23.83500       -1.26290       -0.08290
H        -21.32950       -1.09570       -0.05310
O        -16.63600       -2.57710        1.17610
S        -16.50700       -1.21550        1.75170
O        -16.49550       -1.21870        3.26140
C        -17.69840       -0.09210        1.14680
C        -19.07710       -0.12480        1.22020
C        -19.83510        0.89610        0.67110
C        -19.16940        1.93200        0.05630
C        -17.80400        1.92930        0.00340
C        -16.99790        0.91500        0.54620
C        -15.57140        0.76470        0.54510
C        -14.60770        1.62600       -0.01110
C        -13.27250        1.31190        0.05860
C        -12.79520        0.17510        0.65480
C        -13.73360       -0.66820        1.20140
C        -15.09390       -0.36580        1.14130
H        -19.58200       -0.93040        1.70160
H        -19.72920        2.75930       -0.40620
H        -17.34400        2.76950       -0.49430
H        -14.91390        2.55570       -0.49940
H        -12.52850        1.98970       -0.37560
H        -13.46340       -1.58390        1.69000
O         -7.55580        1.76640       -1.37100
S         -7.80200        0.29330       -1.27850
O         -8.00820       -0.32400       -2.63570
C         -9.14210       -0.08100       -0.20010
C        -10.49690        0.28050       -0.27660
C        -11.36750       -0.13840        0.71310
C        -10.83660       -0.89500        1.72570
C         -9.52050       -1.24900        1.80200
C         -8.61360       -0.83350        0.80340
C         -7.19220       -1.08900        0.71020
C         -6.35030       -1.81440        1.57050
C         -5.01920       -1.95090        1.33620
C         -4.41320       -1.37730        0.22920
C         -5.19920       -0.66300       -0.63360
C         -6.57110       -0.53790       -0.36980
H        -10.83050        0.87040       -1.09810
H        -11.53230       -1.22050        2.51320
H         -9.14740       -1.85550        2.63730
H         -6.76970       -2.28860        2.45700
H         -4.42230       -2.53100        2.04700
H         -4.81050       -0.19720       -1.50420
C         -2.98290       -1.53570        0.00840
C         -2.25210       -0.77860       -0.86380
N         -0.91700       -0.88980       -0.97840
C         -0.20910       -1.78120       -0.21830
C         -0.92840       -2.54800        0.65570
N         -2.28130       -2.43080        0.76860
H         -2.80980       -0.06770       -1.47300
H         -0.39480       -3.27340        1.27840
N          4.54500       -4.89230        1.35990
C          4.01110       -3.95090        0.91250
C          3.34940       -2.79370        0.32690
C          1.95070       -2.82930        0.29180
C          1.24060       -1.82210       -0.26460
C          1.95500       -0.74320       -0.81000
C          3.32300       -0.71880       -0.76940
C          4.06290       -1.75720       -0.18950
H          1.46250       -3.69490        0.72040
H          1.34300        0.05340       -1.25580
H          3.87050        0.11790       -1.18870
O          8.87280       -1.66170       -3.48480
S          8.79170       -0.68380       -2.37240
O          8.49170        0.71550       -2.85010
C          7.62110       -1.16640       -1.14640
C          6.23710       -1.29600       -1.22490
C          5.51560       -1.67380       -0.11500
C          6.22320       -1.90760        1.03160
C          7.57280       -1.78150        1.10150
C          8.33830       -1.39470       -0.01640
C          9.76550       -1.13360       -0.11180
C         10.74310       -1.22330        0.89120
C         12.04500       -0.87370        0.64510
C         12.47290       -0.42000       -0.58620
C         11.52850       -0.33540       -1.56850
C         10.19360       -0.69110       -1.32250
H          5.76330       -1.09130       -2.17270
H          5.62920       -2.18460        1.92370
H          8.07360       -1.98610        2.05280
H         10.42980       -1.58770        1.88420
H         12.80010       -0.94520        1.42080
H         11.77260        0.00560       -2.56800
O         18.18230       -1.84210       -0.20750
S         17.76330       -0.50000        0.33040
O         17.70460       -0.45700        1.82790
C         16.21030       -0.00740       -0.33810
C         14.92240       -0.52550       -0.16850
C         13.85310        0.02090       -0.80640
C         14.10750        1.11990       -1.64160
C         15.36960        1.62010       -1.80220
C         16.47430        1.06060       -1.14110
C         17.85090        1.50640       -1.15470
C         18.44030        2.58780       -1.80250
C         19.74420        2.93730       -1.68030
C         20.59520        2.19230       -0.86160
C         20.04610        1.11630       -0.20910
C         18.69740        0.79090       -0.36110
H         14.79880       -1.37890        0.49330
H         13.25630        1.54440       -2.14680
H         15.54240        2.48780       -2.46550
H         17.83030        3.20040       -2.45150
H         20.19200        3.78300       -2.19430
H         20.64730        0.49460        0.43850
C         21.98740        2.59360       -0.71160
C         22.88410        1.88500        0.01810
N         24.16910        2.34000        0.10280
C         24.59690        3.46950       -0.50800
C         23.64840        4.16490       -1.24320
N         22.37720        3.72670       -1.33520
H         22.60340        0.96000        0.53240
H         23.97970        5.08570       -1.73950
H        -25.18110        0.67370        0.67920
H         25.60590        3.84500       -0.45870
