
     RDKit          3D

116129  0  0  0  0  0  0  0  0999 V2000
  -15.9667    2.2761    2.3201 N   0  0  0  0  0  0  0  0  0  0  0  0
  -16.4690    1.4843    1.6125 C   0  0  0  0  0  0  0  0  0  0  0  0
  -17.1058    0.5304    0.7306 C   0  0  0  0  0  0  0  0  0  0  0  0
  -18.5005    0.6113    0.6133 C   0  0  0  0  0  0  0  0  0  0  0  0
  -19.1456   -0.2697   -0.2262 C   0  0  0  0  0  0  0  0  0  0  0  0
  -18.4180   -1.2072   -0.9306 C   0  0  0  0  0  0  0  0  0  0  0  0
  -17.0497   -1.2809   -0.8101 C   0  0  0  0  0  0  0  0  0  0  0  0
  -16.3776   -0.4024    0.0312 C   0  0  0  0  0  0  0  0  0  0  0  0
  -19.0673    1.3626    1.1798 H   0  0  0  0  0  0  0  0  0  0  0  0
  -18.9327   -1.8993   -1.5921 H   0  0  0  0  0  0  0  0  0  0  0  0
  -16.4561   -2.0042   -1.3497 H   0  0  0  0  0  0  0  0  0  0  0  0
  -11.2364   -0.6917   -3.0074 N   0  0  0  0  0  0  0  0  0  0  0  0
  -11.9178   -0.6593   -2.0654 C   0  0  0  0  0  0  0  0  0  0  0  0
  -12.7459   -0.6220   -0.8793 C   0  0  0  0  0  0  0  0  0  0  0  0
  -14.1128   -0.5190   -0.9442 C   0  0  0  0  0  0  0  0  0  0  0  0
  -14.9278   -0.4780    0.1845 C   0  0  0  0  0  0  0  0  0  0  0  0
  -14.2668   -0.5469    1.3883 C   0  0  0  0  0  0  0  0  0  0  0  0
  -12.8877   -0.6508    1.4809 C   0  0  0  0  0  0  0  0  0  0  0  0
  -12.1172   -0.6901    0.3456 C   0  0  0  0  0  0  0  0  0  0  0  0
  -14.6000   -0.4647   -1.9133 H   0  0  0  0  0  0  0  0  0  0  0  0
  -14.8651   -0.5271    2.3028 H   0  0  0  0  0  0  0  0  0  0  0  0
  -12.4605   -0.6987    2.4830 H   0  0  0  0  0  0  0  0  0  0  0  0
  -10.6812   -0.8517    0.4768 C   0  0  0  0  0  0  0  0  0  0  0  0
  -10.1750   -2.1202    0.6967 C   0  0  0  0  0  0  0  0  0  0  0  0
   -8.8221   -2.3311    0.8213 C   0  0  0  0  0  0  0  0  0  0  0  0
   -7.9517   -1.2392    0.7220 C   0  0  0  0  0  0  0  0  0  0  0  0
   -6.6010   -1.4586    0.8378 C   0  0  0  0  0  0  0  0  0  0  0  0
   -5.6884   -0.4088    0.7365 C   0  0  0  0  0  0  0  0  0  0  0  0
   -6.1299    0.8645    0.5174 C   0  0  0  0  0  0  0  0  0  0  0  0
   -5.2173    1.8975    0.4198 C   0  0  0  0  0  0  0  0  0  0  0  0
   -5.7502    3.1769    0.2041 C   0  0  0  0  0  0  0  0  0  0  0  0
   -7.1076    3.3944    0.0924 C   0  0  0  0  0  0  0  0  0  0  0  0
   -8.0003    2.3423    0.1908 C   0  0  0  0  0  0  0  0  0  0  0  0
   -9.3587    2.5315    0.0752 C   0  0  0  0  0  0  0  0  0  0  0  0
  -10.2584    1.4938    0.1659 C   0  0  0  0  0  0  0  0  0  0  0  0
   -9.7938    0.1933    0.3866 C   0  0  0  0  0  0  0  0  0  0  0  0
   -8.4282    0.0312    0.5039 C   0  0  0  0  0  0  0  0  0  0  0  0
   -7.5112    1.0622    0.4051 C   0  0  0  0  0  0  0  0  0  0  0  0
  -10.8306   -2.9634    0.7743 H   0  0  0  0  0  0  0  0  0  0  0  0
   -8.3775   -3.3014    0.9939 H   0  0  0  0  0  0  0  0  0  0  0  0
   -6.1972   -2.4444    1.0105 H   0  0  0  0  0  0  0  0  0  0  0  0
   -4.6286   -0.6070    0.8535 H   0  0  0  0  0  0  0  0  0  0  0  0
   -5.0396    3.9986    0.1282 H   0  0  0  0  0  0  0  0  0  0  0  0
   -7.5167    4.3926   -0.0750 H   0  0  0  0  0  0  0  0  0  0  0  0
   -9.7137    3.5393   -0.0928 H   0  0  0  0  0  0  0  0  0  0  0  0
  -11.3210    1.6130    0.0770 H   0  0  0  0  0  0  0  0  0  0  0  0
    0.0213    3.3025    2.9448 N   0  0  0  0  0  0  0  0  0  0  0  0
   -0.6565    2.7453    2.1905 C   0  0  0  0  0  0  0  0  0  0  0  0
   -1.5195    2.0709    1.2328 C   0  0  0  0  0  0  0  0  0  0  0  0
   -2.9048    2.2947    1.3200 C   0  0  0  0  0  0  0  0  0  0  0  0
   -3.7687    1.7143    0.4517 C   0  0  0  0  0  0  0  0  0  0  0  0
   -3.2281    0.8875   -0.5314 C   0  0  0  0  0  0  0  0  0  0  0  0
   -1.8850    0.6458   -0.6471 C   0  0  0  0  0  0  0  0  0  0  0  0
   -1.0271    1.2528    0.2564 C   0  0  0  0  0  0  0  0  0  0  0  0
   -3.3005    2.9369    2.0857 H   0  0  0  0  0  0  0  0  0  0  0  0
   -3.8739    0.3942   -1.2589 H   0  0  0  0  0  0  0  0  0  0  0  0
   -1.4463    0.0053   -1.4044 H   0  0  0  0  0  0  0  0  0  0  0  0
    3.4627    0.9833   -3.5941 N   0  0  0  0  0  0  0  0  0  0  0  0
    2.9951    0.9077   -2.5317 C   0  0  0  0  0  0  0  0  0  0  0  0
    2.3869    0.7942   -1.2126 C   0  0  0  0  0  0  0  0  0  0  0  0
    1.0495    1.0939   -1.0764 C   0  0  0  0  0  0  0  0  0  0  0  0
    0.4146    0.9778    0.1585 C   0  0  0  0  0  0  0  0  0  0  0  0
    1.1277    0.5610    1.2576 C   0  0  0  0  0  0  0  0  0  0  0  0
    2.4722    0.2666    1.0931 C   0  0  0  0  0  0  0  0  0  0  0  0
    3.1103    0.3754   -0.1191 C   0  0  0  0  0  0  0  0  0  0  0  0
    0.4549    1.4268   -1.9153 H   0  0  0  0  0  0  0  0  0  0  0  0
    0.6632    0.4450    2.2521 H   0  0  0  0  0  0  0  0  0  0  0  0
    3.0268   -0.0576    1.9484 H   0  0  0  0  0  0  0  0  0  0  0  0
    7.1786   -3.7869    1.1780 N   0  0  0  0  0  0  0  0  0  0  0  0
    6.7944   -2.7848    0.7160 C   0  0  0  0  0  0  0  0  0  0  0  0
    6.3069   -1.5367    0.1688 C   0  0  0  0  0  0  0  0  0  0  0  0
    4.9835   -1.1781    0.2706 C   0  0  0  0  0  0  0  0  0  0  0  0
    4.5120    0.0396   -0.2372 C   0  0  0  0  0  0  0  0  0  0  0  0
    5.4257    0.8650   -0.8417 C   0  0  0  0  0  0  0  0  0  0  0  0
    6.7441    0.4985   -0.9398 C   0  0  0  0  0  0  0  0  0  0  0  0
    7.2245   -0.6872   -0.4518 C   0  0  0  0  0  0  0  0  0  0  0  0
    4.3042   -1.8604    0.7550 H   0  0  0  0  0  0  0  0  0  0  0  0
    5.1219    1.8480   -1.2509 H   0  0  0  0  0  0  0  0  0  0  0  0
    7.4337    1.1724   -1.4221 H   0  0  0  0  0  0  0  0  0  0  0  0
    8.5880   -1.1625   -0.5996 C   0  0  0  0  0  0  0  0  0  0  0  0
    8.7830   -2.3793   -1.2763 C   0  0  0  0  0  0  0  0  0  0  0  0
   10.0642   -2.8192   -1.4767 C   0  0  0  0  0  0  0  0  0  0  0  0
   11.1589   -2.0984   -1.0318 C   0  0  0  0  0  0  0  0  0  0  0  0
   12.4250   -2.5802   -1.2524 C   0  0  0  0  0  0  0  0  0  0  0  0
   13.5483   -1.8729   -0.8094 C   0  0  0  0  0  0  0  0  0  0  0  0
   13.3599   -0.6795   -0.1457 C   0  0  0  0  0  0  0  0  0  0  0  0
   14.4553    0.0138    0.3017 C   0  0  0  0  0  0  0  0  0  0  0  0
   14.2394    1.2108    0.9832 C   0  0  0  0  0  0  0  0  0  0  0  0
   12.9651    1.6699    1.1919 C   0  0  0  0  0  0  0  0  0  0  0  0
   11.8513    0.9789    0.7437 C   0  0  0  0  0  0  0  0  0  0  0  0
   10.5774    1.4517    0.9678 C   0  0  0  0  0  0  0  0  0  0  0  0
    9.4451    0.7532    0.5233 C   0  0  0  0  0  0  0  0  0  0  0  0
    9.6480   -0.4288   -0.1480 C   0  0  0  0  0  0  0  0  0  0  0  0
   10.9475   -0.9087   -0.3708 C   0  0  0  0  0  0  0  0  0  0  0  0
   12.0516   -0.2086    0.0674 C   0  0  0  0  0  0  0  0  0  0  0  0
    7.9432   -2.9452   -1.6366 H   0  0  0  0  0  0  0  0  0  0  0  0
   10.2183   -3.7544   -1.9964 H   0  0  0  0  0  0  0  0  0  0  0  0
   12.6167   -3.5121   -1.7689 H   0  0  0  0  0  0  0  0  0  0  0  0
   14.5306   -2.2899   -0.9914 H   0  0  0  0  0  0  0  0  0  0  0  0
   15.0931    1.7548    1.3355 H   0  0  0  0  0  0  0  0  0  0  0  0
   12.7799    2.6053    1.7234 H   0  0  0  0  0  0  0  0  0  0  0  0
   10.4711    2.4003    1.5093 H   0  0  0  0  0  0  0  0  0  0  0  0
    8.4747    1.1678    0.7401 H   0  0  0  0  0  0  0  0  0  0  0  0
   19.4517   -1.1717    3.2128 N   0  0  0  0  0  0  0  0  0  0  0  0
   18.8013   -1.0557    2.2640 C   0  0  0  0  0  0  0  0  0  0  0  0
   17.9671   -0.9026    1.0886 C   0  0  0  0  0  0  0  0  0  0  0  0
   16.6498   -0.5477    1.2117 C   0  0  0  0  0  0  0  0  0  0  0  0
   15.8283   -0.3972    0.0881 C   0  0  0  0  0  0  0  0  0  0  0  0
   16.4209   -0.6251   -1.1329 C   0  0  0  0  0  0  0  0  0  0  0  0
   17.7458   -0.9826   -1.2663 C   0  0  0  0  0  0  0  0  0  0  0  0
   18.5389   -1.1265   -0.1509 C   0  0  0  0  0  0  0  0  0  0  0  0
   16.2152   -0.3760    2.1859 H   0  0  0  0  0  0  0  0  0  0  0  0
   15.7904   -0.5100   -2.0105 H   0  0  0  0  0  0  0  0  0  0  0  0
   18.1203   -1.1397   -2.2654 H   0  0  0  0  0  0  0  0  0  0  0  0
  -20.2352   -0.1943   -0.3077 H   0  0  0  0  0  0  0  0  0  0  0  0
   19.5924   -1.4092   -0.2330 H   0  0  0  0  0  0  0  0  0  0  0  0
  1  2  3  0
  2  3  1  0
  3  4  2  0
  4  5  1  0
  5  6  2  0
  6  7  1  0
  7  8  2  0
  8  3  1  0
  4  9  1  0
  6 10  1  0
  7 11  1  0
 12 13  3  0
 13 14  1  0
 14 15  2  0
 15 16  1  0
 16 17  2  0
 17 18  1  0
 18 19  2  0
 19 14  1  0
 15 20  1  0
 17 21  1  0
 18 22  1  0
 23 24  2  0
 24 25  1  0
 25 26  2  0
 26 27  1  0
 27 28  2  0
 28 29  1  0
 29 30  2  0
 30 31  1  0
 31 32  2  0
 32 33  1  0
 33 34  2  0
 34 35  1  0
 35 36  2  0
 36 37  1  0
 37 38  2  0
 36 23  1  0
 37 26  1  0
 38 29  1  0
 38 33  1  0
 24 39  1  0
 25 40  1  0
 27 41  1  0
 28 42  1  0
 31 43  1  0
 32 44  1  0
 34 45  1  0
 35 46  1  0
 47 48  3  0
 48 49  1  0
 49 50  2  0
 50 51  1  0
 51 52  2  0
 52 53  1  0
 53 54  2  0
 54 49  1  0
 50 55  1  0
 52 56  1  0
 53 57  1  0
 58 59  3  0
 59 60  1  0
 60 61  2  0
 61 62  1  0
 62 63  2  0
 63 64  1  0
 64 65  2  0
 65 60  1  0
 61 66  1  0
 63 67  1  0
 64 68  1  0
 69 70  3  0
 70 71  1  0
 71 72  2  0
 72 73  1  0
 73 74  2  0
 74 75  1  0
 75 76  2  0
 76 71  1  0
 72 77  1  0
 74 78  1  0
 75 79  1  0
 80 81  2  0
 81 82  1  0
 82 83  2  0
 83 84  1  0
 84 85  2  0
 85 86  1  0
 86 87  2  0
 87 88  1  0
 88 89  2  0
 89 90  1  0
 90 91  2  0
 91 92  1  0
 92 93  2  0
 93 94  1  0
 94 95  2  0
 93 80  1  0
 94 83  1  0
 95 86  1  0
 95 90  1  0
 81 96  1  0
 82 97  1  0
 84 98  1  0
 85 99  1  0
 88100  1  0
 89101  1  0
 91102  1  0
 92103  1  0
104105  3  0
105106  1  0
106107  2  0
107108  1  0
108109  2  0
109110  1  0
110111  2  0
111106  1  0
107112  1  0
109113  1  0
110114  1  0
  8 16  1  0
 19 23  1  0
 30 51  1  0
 54 62  1  0
 65 73  1  0
 76 80  1  0
 87108  1  0
  5115  1  0
111116  1  0
M  END
