116

N        -15.96670        2.27610        2.32010
C        -16.46900        1.48430        1.61250
C        -17.10580        0.53040        0.73060
C        -18.50050        0.61130        0.61330
C        -19.14560       -0.26970       -0.22620
C        -18.41800       -1.20720       -0.93060
C        -17.04970       -1.28090       -0.81010
C        -16.37760       -0.40240        0.03120
H        -19.06730        1.36260        1.17980
H        -18.93270       -1.89930       -1.59210
H        -16.45610       -2.00420       -1.34970
N        -11.23640       -0.69170       -3.00740
C        -11.91780       -0.65930       -2.06540
C        -12.74590       -0.62200       -0.87930
C        -14.11280       -0.51900       -0.94420
C        -14.92780       -0.47800        0.18450
C        -14.26680       -0.54690        1.38830
C        -12.88770       -0.65080        1.48090
C        -12.11720       -0.69010        0.34560
H        -14.60000       -0.46470       -1.91330
H        -14.86510       -0.52710        2.30280
H        -12.46050       -0.69870        2.48300
C        -10.68120       -0.85170        0.47680
C        -10.17500       -2.12020        0.69670
C         -8.82210       -2.33110        0.82130
C         -7.95170       -1.23920        0.72200
C         -6.60100       -1.45860        0.83780
C         -5.68840       -0.40880        0.73650
C         -6.12990        0.86450        0.51740
C         -5.21730        1.89750        0.41980
C         -5.75020        3.17690        0.20410
C         -7.10760        3.39440        0.09240
C         -8.00030        2.34230        0.19080
C         -9.35870        2.53150        0.07520
C        -10.25840        1.49380        0.16590
C         -9.79380        0.19330        0.38660
C         -8.42820        0.03120        0.50390
C         -7.51120        1.06220        0.40510
H        -10.83060       -2.96340        0.77430
H         -8.37750       -3.30140        0.99390
H         -6.19720       -2.44440        1.01050
H         -4.62860       -0.60700        0.85350
H         -5.03960        3.99860        0.12820
H         -7.51670        4.39260       -0.07500
H         -9.71370        3.53930       -0.09280
H        -11.32100        1.61300        0.07700
N          0.02130        3.30250        2.94480
C         -0.65650        2.74530        2.19050
C         -1.51950        2.07090        1.23280
C         -2.90480        2.29470        1.32000
C         -3.76870        1.71430        0.45170
C         -3.22810        0.88750       -0.53140
C         -1.88500        0.64580       -0.64710
C         -1.02710        1.25280        0.25640
H         -3.30050        2.93690        2.08570
H         -3.87390        0.39420       -1.25890
H         -1.44630        0.00530       -1.40440
N          3.46270        0.98330       -3.59410
C          2.99510        0.90770       -2.53170
C          2.38690        0.79420       -1.21260
C          1.04950        1.09390       -1.07640
C          0.41460        0.97780        0.15850
C          1.12770        0.56100        1.25760
C          2.47220        0.26660        1.09310
C          3.11030        0.37540       -0.11910
H          0.45490        1.42680       -1.91530
H          0.66320        0.44500        2.25210
H          3.02680       -0.05760        1.94840
N          7.17860       -3.78690        1.17800
C          6.79440       -2.78480        0.71600
C          6.30690       -1.53670        0.16880
C          4.98350       -1.17810        0.27060
C          4.51200        0.03960       -0.23720
C          5.42570        0.86500       -0.84170
C          6.74410        0.49850       -0.93980
C          7.22450       -0.68720       -0.45180
H          4.30420       -1.86040        0.75500
H          5.12190        1.84800       -1.25090
H          7.43370        1.17240       -1.42210
C          8.58800       -1.16250       -0.59960
C          8.78300       -2.37930       -1.27630
C         10.06420       -2.81920       -1.47670
C         11.15890       -2.09840       -1.03180
C         12.42500       -2.58020       -1.25240
C         13.54830       -1.87290       -0.80940
C         13.35990       -0.67950       -0.14570
C         14.45530        0.01380        0.30170
C         14.23940        1.21080        0.98320
C         12.96510        1.66990        1.19190
C         11.85130        0.97890        0.74370
C         10.57740        1.45170        0.96780
C          9.44510        0.75320        0.52330
C          9.64800       -0.42880       -0.14800
C         10.94750       -0.90870       -0.37080
C         12.05160       -0.20860        0.06740
H          7.94320       -2.94520       -1.63660
H         10.21830       -3.75440       -1.99640
H         12.61670       -3.51210       -1.76890
H         14.53060       -2.28990       -0.99140
H         15.09310        1.75480        1.33550
H         12.77990        2.60530        1.72340
H         10.47110        2.40030        1.50930
H          8.47470        1.16780        0.74010
N         19.45170       -1.17170        3.21280
C         18.80130       -1.05570        2.26400
C         17.96710       -0.90260        1.08860
C         16.64980       -0.54770        1.21170
C         15.82830       -0.39720        0.08810
C         16.42090       -0.62510       -1.13290
C         17.74580       -0.98260       -1.26630
C         18.53890       -1.12650       -0.15090
H         16.21520       -0.37600        2.18590
H         15.79040       -0.51000       -2.01050
H         18.12030       -1.13970       -2.26540
H        -20.23520       -0.19430       -0.30770
H         19.59240       -1.40920       -0.23300
