156

O         22.49690       -2.23430        3.37000
S         22.96110       -2.27510        1.93830
O         22.70270       -3.59660        1.30620
C         24.60740       -1.74240        1.76690
C         25.75510       -2.32600        2.25920
C         26.98190       -1.71820        1.99180
C         27.00050       -0.57050        1.25270
C         25.83630       -0.03000        0.78550
C         24.57140       -0.60220        1.02870
C         23.25410       -0.16390        0.62510
C         22.91140        0.99130       -0.12130
C         21.57440        1.24500       -0.38080
C         20.55240        0.46110        0.02690
C         20.89800       -0.66640        0.75540
C         22.21950       -0.95350        1.03680
H         25.71980       -3.22410        2.84620
H         27.92900       -0.04490        1.01090
H         25.86950        0.89160        0.19360
H         23.67450        1.66100       -0.48080
H         21.31660        2.14290       -0.95370
H         20.12430       -1.32700        1.11210
N         16.45300        4.73480       -0.42320
C         16.80690        3.63690       -0.40500
C         17.26430        2.26040       -0.39150
C         18.62350        1.98500       -0.21450
C         19.11380        0.71700       -0.19420
C         18.25220       -0.33270       -0.35820
C         16.90540       -0.12020       -0.53660
C         16.42160        1.20010       -0.54750
H         19.25410        2.87180       -0.09870
H         18.66320       -1.33370       -0.33860
H         16.19950       -0.91680       -0.69150
C         15.00300        1.41690       -0.75850
C         14.63280        2.22530       -1.83030
C         13.30330        2.35770       -2.11300
C         12.32600        1.70740       -1.36120
C         10.98480        1.86910       -1.73890
C         10.01370        1.19700       -1.01150
C         10.35770        0.40620        0.03380
C          9.36780       -0.26410        0.74760
C          9.76660       -1.04690        1.80520
C         11.11480       -1.18760        2.17530
C         12.08700       -0.51690        1.44840
C         13.42300       -0.66900        1.79610
C         14.41700       -0.03200        1.07670
C         14.06780        0.76520        0.01150
C         12.72230        0.92310       -0.31280
C         11.71560        0.26170        0.39930
H         15.39240        2.74050       -2.43550
H         12.96880        2.98150       -2.94100
H         10.73470        2.49840       -2.56580
H          8.97140        1.36670       -1.29240
H          9.01840       -1.57840        2.38650
H         11.43200       -1.80160        2.99470
H         13.73950       -1.27790        2.62760
H         15.45490       -0.13650        1.38650
O          3.98710        1.62320        2.08910
S          4.07130        0.19180        1.64220
O          3.91410       -0.78280        2.77890
C          5.59420       -0.07740        0.78020
C          6.91180       -0.01130        1.20030
C          7.95740       -0.27210        0.36000
C          7.58420       -0.60870       -0.94830
C          6.29100       -0.67260       -1.36330
C          5.21960       -0.40360       -0.49920
C          3.81350       -0.43720       -0.74840
C          3.13200       -0.71220       -1.95760
C          1.77610       -0.68990       -2.04670
C          0.98080       -0.39840       -0.96810
C          1.63560       -0.12560        0.22810
C          3.01270       -0.14860        0.30940
H          7.11900        0.25240        2.23220
H          8.41540       -0.84380       -1.63490
H          6.06600       -0.93720       -2.41460
H          3.70600       -0.95890       -2.85530
H          1.28260       -0.90700       -2.97910
H          1.02780        0.10440        1.09190
O         -4.08870       -2.50720        0.86170
S         -4.02380       -1.00990        0.77090
O         -3.93460       -0.36240        2.10940
C         -2.70200       -0.53240       -0.29290
C         -1.33020       -0.71720       -0.14200
C         -0.46710       -0.30270       -1.11810
C         -1.02850        0.29720       -2.24300
C         -2.38730        0.47240       -2.36930
C         -3.28750        0.05400       -1.37600
C         -4.72120        0.15490       -1.33180
C         -5.58130        0.75230       -2.25140
C         -6.94490        0.81380       -2.02360
C         -7.51040        0.29370       -0.89310
C         -6.63500       -0.29760        0.00310
C         -5.28470       -0.35430       -0.22400
H         -0.94640       -1.17870        0.74190
H         -0.32910        0.62370       -3.01680
H         -2.79990        0.94510       -3.27020
H         -5.20800        1.20090       -3.17560
H         -7.57780        1.28830       -2.77990
H         -7.09160       -0.72640        0.90170
N        -12.32760        3.78740       -1.33400
C        -11.72370        2.85000       -1.03970
C        -10.97050        1.69950       -0.70160
C         -9.63190        1.54390       -0.94160
C         -8.94920        0.39640       -0.57850
C         -9.61560       -0.63010        0.03770
C        -10.96800       -0.47720        0.28010
C        -11.65300        0.65880       -0.07400
H         -9.10040        2.34880       -1.43610
H         -9.04900       -1.48930        0.29950
H        -11.50010       -1.28880        0.76050
C        -13.07150        0.81730        0.25210
C        -13.39770        1.86220        1.11590
C        -14.70460        2.07620        1.50620
C        -15.73790        1.26410        1.05300
C        -17.05740        1.49600        1.42270
C        -18.07140        0.69220        0.93180
C        -17.76560       -0.34770        0.06980
C        -18.78500       -1.12040       -0.42920
C        -18.47100       -2.15060       -1.31910
C        -17.15250       -2.34230       -1.65300
C        -16.14340       -1.55900       -1.14420
C        -14.81920       -1.78200       -1.53550
C        -13.77680       -1.01000       -1.07560
C        -14.08670        0.01450       -0.19650
C        -15.40860        0.23120        0.19660
C        -16.44630       -0.54070       -0.26570
H        -12.61310        2.50100        1.48330
H        -14.98500        2.87750        2.18220
H        -17.24360        2.33070        2.11490
H        -19.07070        0.89180        1.22950
H        -19.26460       -2.77770       -1.73860
H        -16.89540       -3.13410       -2.34250
H        -14.61720       -2.59930       -2.21880
H        -12.75970       -1.19860       -1.39870
O        -23.70320        1.36610       -2.29890
S        -23.81130       -0.04670       -1.79270
O        -24.07150       -1.00500       -2.89400
C        -22.44910       -0.47470       -0.79550
C        -21.11500       -0.61250       -1.09650
C        -20.18820       -0.95830       -0.10590
C        -20.68100       -1.14740        1.14550
C        -22.00760       -1.01410        1.45750
C        -22.94280       -0.66640        0.46460
C        -24.35710       -0.50020        0.60680
C        -25.17910       -0.63720        1.74810
C        -26.52190       -0.45360        1.69860
C        -27.17560       -0.12270        0.53300
C        -26.40740        0.01860       -0.59650
C        -25.03780       -0.17140       -0.53210
H        -20.73140       -0.46190       -2.09110
H        -19.97720       -1.42180        1.94970
H        -22.29510       -1.18430        2.48600
H        -24.75320       -0.89240        2.71490
H        -27.11000       -0.57030        2.59710
H        -26.84200        0.26780       -1.54990
H         27.88870       -2.14790        2.35530
H        -28.24530        0.02630        0.45470
