
     RDKit          3D

182209  0  0  0  0  0  0  0  0999 V2000
  -21.1942    0.2098   -6.0824 O   0  0  0  0  0  0  0  0  0  0  0  0
  -22.0692    1.0970   -5.2393 S   0  0  0  0  0  0  0  0  0  0  0  0
  -21.8018    2.5410   -5.4744 O   0  0  0  0  0  0  0  0  0  0  0  0
  -23.7643    0.6736   -5.4484 C   0  0  0  0  0  0  0  0  0  0  0  0
  -24.5925    0.7730   -6.5619 C   0  0  0  0  0  0  0  0  0  0  0  0
  -25.8820    0.3526   -6.4736 C   0  0  0  0  0  0  0  0  0  0  0  0
  -26.3158   -0.1583   -5.2774 C   0  0  0  0  0  0  0  0  0  0  0  0
  -25.5103   -0.2540   -4.2000 C   0  0  0  0  0  0  0  0  0  0  0  0
  -24.1614    0.1691   -4.2381 C   0  0  0  0  0  0  0  0  0  0  0  0
  -23.1799    0.1731   -3.2000 C   0  0  0  0  0  0  0  0  0  0  0  0
  -23.2875   -0.2337   -1.8597 C   0  0  0  0  0  0  0  0  0  0  0  0
  -22.2339   -0.1106   -0.9899 C   0  0  0  0  0  0  0  0  0  0  0  0
  -21.0454    0.3930   -1.3341 C   0  0  0  0  0  0  0  0  0  0  0  0
  -20.9124    0.8089   -2.6845 C   0  0  0  0  0  0  0  0  0  0  0  0
  -21.9594    0.6861   -3.5483 C   0  0  0  0  0  0  0  0  0  0  0  0
  -24.1570    1.1882   -7.4650 H   0  0  0  0  0  0  0  0  0  0  0  0
  -27.3475   -0.4854   -5.2189 H   0  0  0  0  0  0  0  0  0  0  0  0
  -25.9059   -0.6829   -3.2681 H   0  0  0  0  0  0  0  0  0  0  0  0
  -24.2003   -0.6478   -1.4781 H   0  0  0  0  0  0  0  0  0  0  0  0
  -22.3860   -0.4493    0.0475 H   0  0  0  0  0  0  0  0  0  0  0  0
  -19.9599    1.2118   -2.9653 H   0  0  0  0  0  0  0  0  0  0  0  0
  -19.9005    0.5915   -0.4643 C   0  0  0  0  0  0  0  0  0  0  0  0
  -19.4023    1.9060   -0.3637 C   0  0  0  0  0  0  0  0  0  0  0  0
  -18.3086    2.2047    0.3857 C   0  0  0  0  0  0  0  0  0  0  0  0
  -17.6599    1.2008    1.0713 C   0  0  0  0  0  0  0  0  0  0  0  0
  -16.5297    1.4668    1.7974 C   0  0  0  0  0  0  0  0  0  0  0  0
  -15.8564    0.4579    2.4475 C   0  0  0  0  0  0  0  0  0  0  0  0
  -16.3230   -0.8263    2.3698 C   0  0  0  0  0  0  0  0  0  0  0  0
  -15.6413   -1.8532    3.0057 C   0  0  0  0  0  0  0  0  0  0  0  0
  -16.1115   -3.1391    2.9070 C   0  0  0  0  0  0  0  0  0  0  0  0
  -17.2458   -3.4508    2.1926 C   0  0  0  0  0  0  0  0  0  0  0  0
  -17.9420   -2.4451    1.5452 C   0  0  0  0  0  0  0  0  0  0  0  0
  -19.0498   -2.7044    0.7936 C   0  0  0  0  0  0  0  0  0  0  0  0
  -19.7159   -1.7134    0.1233 C   0  0  0  0  0  0  0  0  0  0  0  0
  -19.2597   -0.3971    0.2160 C   0  0  0  0  0  0  0  0  0  0  0  0
  -18.1274   -0.0878    0.9913 C   0  0  0  0  0  0  0  0  0  0  0  0
  -17.4821   -1.1545    1.6349 C   0  0  0  0  0  0  0  0  0  0  0  0
  -19.9235    2.6736   -0.9073 H   0  0  0  0  0  0  0  0  0  0  0  0
  -17.9091    3.2272    0.4721 H   0  0  0  0  0  0  0  0  0  0  0  0
  -16.1471    2.4872    1.8711 H   0  0  0  0  0  0  0  0  0  0  0  0
  -14.9607    0.6667    3.0036 H   0  0  0  0  0  0  0  0  0  0  0  0
  -15.5834   -3.9628    3.4109 H   0  0  0  0  0  0  0  0  0  0  0  0
  -17.6480   -4.4455    2.0909 H   0  0  0  0  0  0  0  0  0  0  0  0
  -19.4204   -3.7025    0.7093 H   0  0  0  0  0  0  0  0  0  0  0  0
  -20.5812   -1.9211   -0.4834 H   0  0  0  0  0  0  0  0  0  0  0  0
  -10.1588   -3.7295    3.2954 O   0  0  0  0  0  0  0  0  0  0  0  0
  -10.4021   -2.2992    2.9427 S   0  0  0  0  0  0  0  0  0  0  0  0
  -10.2406   -2.0426    1.4868 O   0  0  0  0  0  0  0  0  0  0  0  0
  -11.9994   -1.7638    3.5025 C   0  0  0  0  0  0  0  0  0  0  0  0
  -13.2455   -2.0688    3.0453 C   0  0  0  0  0  0  0  0  0  0  0  0
  -14.3777   -1.5291    3.6686 C   0  0  0  0  0  0  0  0  0  0  0  0
  -14.1545   -0.7186    4.7253 C   0  0  0  0  0  0  0  0  0  0  0  0
  -12.9003   -0.4107    5.1876 C   0  0  0  0  0  0  0  0  0  0  0  0
  -11.7505   -0.9401    4.5639 C   0  0  0  0  0  0  0  0  0  0  0  0
  -10.3687   -0.6346    4.8072 C   0  0  0  0  0  0  0  0  0  0  0  0
   -9.7935    0.2689    5.7219 C   0  0  0  0  0  0  0  0  0  0  0  0
   -8.4414    0.5604    5.7474 C   0  0  0  0  0  0  0  0  0  0  0  0
   -7.5994   -0.0197    4.8808 C   0  0  0  0  0  0  0  0  0  0  0  0
   -8.1389   -0.9412    3.9468 C   0  0  0  0  0  0  0  0  0  0  0  0
   -9.4819   -1.2113    3.9449 C   0  0  0  0  0  0  0  0  0  0  0  0
  -13.3287   -2.7445    2.1825 H   0  0  0  0  0  0  0  0  0  0  0  0
  -15.0161   -0.2944    5.2215 H   0  0  0  0  0  0  0  0  0  0  0  0
  -12.8182    0.2601    6.0528 H   0  0  0  0  0  0  0  0  0  0  0  0
  -10.4291    0.7660    6.4403 H   0  0  0  0  0  0  0  0  0  0  0  0
   -8.1022    1.2827    6.4996 H   0  0  0  0  0  0  0  0  0  0  0  0
   -7.4855   -1.4309    3.2454 H   0  0  0  0  0  0  0  0  0  0  0  0
   -6.1714    0.2021    4.8041 C   0  0  0  0  0  0  0  0  0  0  0  0
   -5.2735   -0.1792    5.7412 C   0  0  0  0  0  0  0  0  0  0  0  0
   -3.9194   -0.1225    5.4164 C   0  0  0  0  0  0  0  0  0  0  0  0
   -3.5013    0.3078    4.1806 C   0  0  0  0  0  0  0  0  0  0  0  0
   -2.1667    0.3020    3.8770 C   0  0  0  0  0  0  0  0  0  0  0  0
   -1.7656    0.6982    2.6014 C   0  0  0  0  0  0  0  0  0  0  0  0
   -2.6299    1.0992    1.6155 C   0  0  0  0  0  0  0  0  0  0  0  0
   -2.1869    1.4925    0.3754 C   0  0  0  0  0  0  0  0  0  0  0  0
   -3.0923    1.9091   -0.5658 C   0  0  0  0  0  0  0  0  0  0  0  0
   -4.4422    1.9318   -0.2780 C   0  0  0  0  0  0  0  0  0  0  0  0
   -4.8666    1.5264    0.9723 C   0  0  0  0  0  0  0  0  0  0  0  0
   -6.2028    1.4989    1.3013 C   0  0  0  0  0  0  0  0  0  0  0  0
   -6.6223    1.0618    2.5616 C   0  0  0  0  0  0  0  0  0  0  0  0
   -5.7367    0.6494    3.5379 C   0  0  0  0  0  0  0  0  0  0  0  0
   -4.4019    0.7083    3.2039 C   0  0  0  0  0  0  0  0  0  0  0  0
   -3.9808    1.1018    1.9411 C   0  0  0  0  0  0  0  0  0  0  0  0
   -5.6183   -0.5136    6.7007 H   0  0  0  0  0  0  0  0  0  0  0  0
   -3.2103   -0.4263    6.1631 H   0  0  0  0  0  0  0  0  0  0  0  0
   -1.4066   -0.0066    4.6182 H   0  0  0  0  0  0  0  0  0  0  0  0
   -0.7211    0.6860    2.4305 H   0  0  0  0  0  0  0  0  0  0  0  0
   -2.6834    2.2072   -1.5282 H   0  0  0  0  0  0  0  0  0  0  0  0
   -5.1547    2.2611   -1.0153 H   0  0  0  0  0  0  0  0  0  0  0  0
   -6.9139    1.8270    0.5509 H   0  0  0  0  0  0  0  0  0  0  0  0
   -7.6804    1.1076    2.7087 H   0  0  0  0  0  0  0  0  0  0  0  0
    2.5444    3.4600   -2.6039 O   0  0  0  0  0  0  0  0  0  0  0  0
    2.7662    2.9004   -1.2285 S   0  0  0  0  0  0  0  0  0  0  0  0
    3.0794    3.9669   -0.2318 O   0  0  0  0  0  0  0  0  0  0  0  0
    1.4159    1.9006   -0.7006 C   0  0  0  0  0  0  0  0  0  0  0  0
    0.1026    2.2493   -0.3609 C   0  0  0  0  0  0  0  0  0  0  0  0
   -0.7702    1.2823    0.0152 C   0  0  0  0  0  0  0  0  0  0  0  0
   -0.2987   -0.0401    0.0378 C   0  0  0  0  0  0  0  0  0  0  0  0
    0.9725   -0.3742   -0.2926 C   0  0  0  0  0  0  0  0  0  0  0  0
    1.8981    0.6237   -0.6829 C   0  0  0  0  0  0  0  0  0  0  0  0
    3.2977    0.4763   -0.9855 C   0  0  0  0  0  0  0  0  0  0  0  0
    4.0916   -0.6911   -0.9518 C   0  0  0  0  0  0  0  0  0  0  0  0
    5.4230   -0.6544   -1.1628 C   0  0  0  0  0  0  0  0  0  0  0  0
    6.1069    0.5179   -1.4274 C   0  0  0  0  0  0  0  0  0  0  0  0
    5.3542    1.6613   -1.4718 C   0  0  0  0  0  0  0  0  0  0  0  0
    3.9716    1.6311   -1.2510 C   0  0  0  0  0  0  0  0  0  0  0  0
   -0.1749    3.2763   -0.4046 H   0  0  0  0  0  0  0  0  0  0  0  0
   -1.0335   -0.8030    0.3459 H   0  0  0  0  0  0  0  0  0  0  0  0
    1.2872   -1.4286   -0.2602 H   0  0  0  0  0  0  0  0  0  0  0  0
    3.6196   -1.6627   -0.7486 H   0  0  0  0  0  0  0  0  0  0  0  0
    6.0269   -1.5737   -1.1192 H   0  0  0  0  0  0  0  0  0  0  0  0
    5.7977    2.6226   -1.6746 H   0  0  0  0  0  0  0  0  0  0  0  0
    7.5675    0.5351   -1.4968 C   0  0  0  0  0  0  0  0  0  0  0  0
    8.1658    1.4073   -0.5743 C   0  0  0  0  0  0  0  0  0  0  0  0
    9.5220    1.4028   -0.4202 C   0  0  0  0  0  0  0  0  0  0  0  0
   10.3228    0.5444   -1.1679 C   0  0  0  0  0  0  0  0  0  0  0  0
   11.6772    0.5319   -0.9731 C   0  0  0  0  0  0  0  0  0  0  0  0
   12.4646   -0.3440   -1.6950 C   0  0  0  0  0  0  0  0  0  0  0  0
   11.9228   -1.2050   -2.6102 C   0  0  0  0  0  0  0  0  0  0  0  0
   12.7457   -2.0935   -3.3314 C   0  0  0  0  0  0  0  0  0  0  0  0
   12.1525   -2.9263   -4.2177 C   0  0  0  0  0  0  0  0  0  0  0  0
   10.7718   -2.9010   -4.4050 C   0  0  0  0  0  0  0  0  0  0  0  0
    9.9388   -2.0306   -3.7009 C   0  0  0  0  0  0  0  0  0  0  0  0
    8.5672   -2.0183   -3.8694 C   0  0  0  0  0  0  0  0  0  0  0  0
    7.7828   -1.1538   -3.1335 C   0  0  0  0  0  0  0  0  0  0  0  0
    8.3623   -0.2915   -2.2223 C   0  0  0  0  0  0  0  0  0  0  0  0
    9.7543   -0.3067   -2.0723 C   0  0  0  0  0  0  0  0  0  0  0  0
   10.5586   -1.1863   -2.8001 C   0  0  0  0  0  0  0  0  0  0  0  0
    7.5263    2.0730   -0.0034 H   0  0  0  0  0  0  0  0  0  0  0  0
   10.0087    2.0677    0.2887 H   0  0  0  0  0  0  0  0  0  0  0  0
   12.0942    1.2141   -0.2613 H   0  0  0  0  0  0  0  0  0  0  0  0
   13.5312   -0.3729   -1.5205 H   0  0  0  0  0  0  0  0  0  0  0  0
   12.7688   -3.6153   -4.7820 H   0  0  0  0  0  0  0  0  0  0  0  0
   10.2901   -3.5566   -5.1159 H   0  0  0  0  0  0  0  0  0  0  0  0
    8.0947   -2.6896   -4.5816 H   0  0  0  0  0  0  0  0  0  0  0  0
    6.7170   -1.1511   -3.3046 H   0  0  0  0  0  0  0  0  0  0  0  0
   16.7633    1.8548   -3.1691 O   0  0  0  0  0  0  0  0  0  0  0  0
   17.3863    0.5142   -3.3715 S   0  0  0  0  0  0  0  0  0  0  0  0
   17.9699    0.3353   -4.7379 O   0  0  0  0  0  0  0  0  0  0  0  0
   16.2047   -0.7479   -3.0143 C   0  0  0  0  0  0  0  0  0  0  0  0
   14.9191   -0.9190   -3.4703 C   0  0  0  0  0  0  0  0  0  0  0  0
   14.1942   -2.0047   -3.0376 C   0  0  0  0  0  0  0  0  0  0  0  0
   14.7864   -2.8886   -2.1716 C   0  0  0  0  0  0  0  0  0  0  0  0
   16.0724   -2.7020   -1.7289 C   0  0  0  0  0  0  0  0  0  0  0  0
   16.8393   -1.5951   -2.1409 C   0  0  0  0  0  0  0  0  0  0  0  0
   18.1104   -1.1388   -1.6433 C   0  0  0  0  0  0  0  0  0  0  0  0
   18.9071   -1.6929   -0.6214 C   0  0  0  0  0  0  0  0  0  0  0  0
   20.0073   -1.0061   -0.1503 C   0  0  0  0  0  0  0  0  0  0  0  0
   20.3934    0.1974   -0.6116 C   0  0  0  0  0  0  0  0  0  0  0  0
   19.6032    0.7514   -1.6409 C   0  0  0  0  0  0  0  0  0  0  0  0
   18.5092    0.0835   -2.1164 C   0  0  0  0  0  0  0  0  0  0  0  0
   14.4924   -0.2218   -4.1496 H   0  0  0  0  0  0  0  0  0  0  0  0
   14.1981   -3.7409   -1.8581 H   0  0  0  0  0  0  0  0  0  0  0  0
   16.5098   -3.4422   -1.0399 H   0  0  0  0  0  0  0  0  0  0  0  0
   18.6804   -2.6556   -0.1934 H   0  0  0  0  0  0  0  0  0  0  0  0
   20.5821   -1.4794    0.6619 H   0  0  0  0  0  0  0  0  0  0  0  0
   19.9148    1.7088   -2.0204 H   0  0  0  0  0  0  0  0  0  0  0  0
   21.4636    0.9960   -0.0541 C   0  0  0  0  0  0  0  0  0  0  0  0
   21.0842    2.3115    0.3389 C   0  0  0  0  0  0  0  0  0  0  0  0
   21.9865    3.1564    0.9216 C   0  0  0  0  0  0  0  0  0  0  0  0
   23.2908    2.7994    1.1595 C   0  0  0  0  0  0  0  0  0  0  0  0
   24.1573    3.6942    1.7475 C   0  0  0  0  0  0  0  0  0  0  0  0
   25.4696    3.3109    1.9740 C   0  0  0  0  0  0  0  0  0  0  0  0
   25.8833    2.0457    1.6079 C   0  0  0  0  0  0  0  0  0  0  0  0
   27.1856    1.6519    1.8238 C   0  0  0  0  0  0  0  0  0  0  0  0
   27.6227    0.3908    1.4629 C   0  0  0  0  0  0  0  0  0  0  0  0
   26.6982   -0.4663    0.8729 C   0  0  0  0  0  0  0  0  0  0  0  0
   25.3821   -0.0939    0.6447 C   0  0  0  0  0  0  0  0  0  0  0  0
   24.4845   -0.9567    0.0546 C   0  0  0  0  0  0  0  0  0  0  0  0
   23.1620   -0.6144   -0.1908 C   0  0  0  0  0  0  0  0  0  0  0  0
   22.7522    0.6511    0.1832 C   0  0  0  0  0  0  0  0  0  0  0  0
   23.6633    1.5213    0.7776 C   0  0  0  0  0  0  0  0  0  0  0  0
   24.9667    1.1659    1.0117 C   0  0  0  0  0  0  0  0  0  0  0  0
   20.0570    2.5798    0.1478 H   0  0  0  0  0  0  0  0  0  0  0  0
   21.6694    4.1717    1.2151 H   0  0  0  0  0  0  0  0  0  0  0  0
   23.8762    4.7013    2.0435 H   0  0  0  0  0  0  0  0  0  0  0  0
   26.1677    4.0211    2.4392 H   0  0  0  0  0  0  0  0  0  0  0  0
   28.6475    0.1284    1.6529 H   0  0  0  0  0  0  0  0  0  0  0  0
   27.0257   -1.4375    0.5963 H   0  0  0  0  0  0  0  0  0  0  0  0
   24.8180   -1.9441   -0.2325 H   0  0  0  0  0  0  0  0  0  0  0  0
   22.4833   -1.3011   -0.6713 H   0  0  0  0  0  0  0  0  0  0  0  0
  -26.5483    0.4352   -7.3490 H   0  0  0  0  0  0  0  0  0  0  0  0
   27.8988    2.3445    2.2933 H   0  0  0  0  0  0  0  0  0  0  0  0
  1  2  2  0
  2  3  2  0
  2  4  1  0
  4  5  2  0
  5  6  1  0
  6  7  2  0
  7  8  1  0
  8  9  2  0
  9 10  1  0
 10 11  2  0
 11 12  1  0
 12 13  2  0
 13 14  1  0
 14 15  2  0
 15  2  1  0
  9  4  1  0
 15 10  1  0
  5 16  1  0
  7 17  1  0
  8 18  1  0
 11 19  1  0
 12 20  1  0
 14 21  1  0
 22 23  2  0
 23 24  1  0
 24 25  2  0
 25 26  1  0
 26 27  2  0
 27 28  1  0
 28 29  2  0
 29 30  1  0
 30 31  2  0
 31 32  1  0
 32 33  2  0
 33 34  1  0
 34 35  2  0
 35 36  1  0
 36 37  2  0
 35 22  1  0
 36 25  1  0
 37 28  1  0
 37 32  1  0
 23 38  1  0
 24 39  1  0
 26 40  1  0
 27 41  1  0
 30 42  1  0
 31 43  1  0
 33 44  1  0
 34 45  1  0
 46 47  2  0
 47 48  2  0
 47 49  1  0
 49 50  2  0
 50 51  1  0
 51 52  2  0
 52 53  1  0
 53 54  2  0
 54 55  1  0
 55 56  2  0
 56 57  1  0
 57 58  2  0
 58 59  1  0
 59 60  2  0
 60 47  1  0
 54 49  1  0
 60 55  1  0
 50 61  1  0
 52 62  1  0
 53 63  1  0
 56 64  1  0
 57 65  1  0
 59 66  1  0
 67 68  2  0
 68 69  1  0
 69 70  2  0
 70 71  1  0
 71 72  2  0
 72 73  1  0
 73 74  2  0
 74 75  1  0
 75 76  2  0
 76 77  1  0
 77 78  2  0
 78 79  1  0
 79 80  2  0
 80 81  1  0
 81 82  2  0
 80 67  1  0
 81 70  1  0
 82 73  1  0
 82 77  1  0
 68 83  1  0
 69 84  1  0
 71 85  1  0
 72 86  1  0
 75 87  1  0
 76 88  1  0
 78 89  1  0
 79 90  1  0
 91 92  2  0
 92 93  2  0
 92 94  1  0
 94 95  2  0
 95 96  1  0
 96 97  2  0
 97 98  1  0
 98 99  2  0
 99100  1  0
100101  2  0
101102  1  0
102103  2  0
103104  1  0
104105  2  0
105 92  1  0
 99 94  1  0
105100  1  0
 95106  1  0
 97107  1  0
 98108  1  0
101109  1  0
102110  1  0
104111  1  0
112113  2  0
113114  1  0
114115  2  0
115116  1  0
116117  2  0
117118  1  0
118119  2  0
119120  1  0
120121  2  0
121122  1  0
122123  2  0
123124  1  0
124125  2  0
125126  1  0
126127  2  0
125112  1  0
126115  1  0
127118  1  0
127122  1  0
113128  1  0
114129  1  0
116130  1  0
117131  1  0
120132  1  0
121133  1  0
123134  1  0
124135  1  0
136137  2  0
137138  2  0
137139  1  0
139140  2  0
140141  1  0
141142  2  0
142143  1  0
143144  2  0
144145  1  0
145146  2  0
146147  1  0
147148  2  0
148149  1  0
149150  2  0
150137  1  0
144139  1  0
150145  1  0
140151  1  0
142152  1  0
143153  1  0
146154  1  0
147155  1  0
149156  1  0
157158  2  0
158159  1  0
159160  2  0
160161  1  0
161162  2  0
162163  1  0
163164  2  0
164165  1  0
165166  2  0
166167  1  0
167168  2  0
168169  1  0
169170  2  0
170171  1  0
171172  2  0
170157  1  0
171160  1  0
172163  1  0
172167  1  0
158173  1  0
159174  1  0
161175  1  0
162176  1  0
165177  1  0
166178  1  0
168179  1  0
169180  1  0
 13 22  1  0
 29 51  1  0
 58 67  1  0
 74 96  1  0
103112  1  0
119141  1  0
148157  1  0
  6181  1  0
164182  1  0
M  END
