162

C         23.24210       -2.09180        1.54250
C         22.93360       -3.22090        0.81460
C         21.74830       -3.29640        0.11830
C         20.82190       -2.26520        0.11370
C         19.63790       -2.35870       -0.57020
C         18.72580       -1.29670       -0.53410
C         19.03530       -0.18650        0.17890
C         18.16470        0.88160        0.24860
C         18.51990        1.97360        0.99560
C         19.69090        2.08900        1.68940
C         20.55500        1.01030        1.60830
C         21.73430        1.12630        2.31830
C         22.62770        0.09420        2.29350
C         22.33430       -1.05640        1.54830
C         21.15350       -1.13600        0.85480
C         20.23550       -0.10680        0.86660
H         23.64320       -4.05530        0.80710
H         21.49520       -4.17890       -0.46640
H         19.38400       -3.23000       -1.13820
H         17.78600       -1.37670       -1.03870
H         17.81820        2.78750        1.03930
H         19.92420        2.98650        2.27610
H         21.96680        2.03200        2.88290
H         23.55720        0.11520        2.80040
C         16.89970        0.85420       -0.50950
C         16.92790        0.72670       -1.88040
C         15.77300        0.70310       -2.65330
C         14.53220        0.81060       -2.06080
C         13.36040        0.76430       -2.81070
C         12.11240        0.84710       -2.24440
C         12.05660        0.98100       -0.86580
C         10.83120        1.07010       -0.30060
C         10.78350        1.22200        1.10650
C         11.94060        1.27140        1.83750
C         13.17800        1.17390        1.24290
C         14.31620        1.20570        2.00440
C         15.58510        1.09780        1.43590
C         15.66150        0.96460        0.07510
C         14.48710        0.94470       -0.68260
C         13.23290        1.02810       -0.12770
H         17.88720        0.64560       -2.38760
H         15.77430        0.60620       -3.72970
H         13.46290        0.66370       -3.88930
H         11.19460        0.81200       -2.83450
H          9.80720        1.28410        1.55100
H         11.92400        1.38840        2.92030
H         14.24760        1.31450        3.06890
H         16.43790        1.10530        2.06760
C          9.53370        1.01320       -0.97480
C          8.97000       -0.24810       -1.15150
N          7.71200       -0.39520       -1.59580
C          6.93460        0.70760       -1.89260
C          7.49640        1.92540       -1.72980
N          8.76970        2.06360       -1.27990
H          9.58560       -1.11990       -0.92300
H          6.91070        2.80710       -2.00600
C          5.56020        0.39010       -2.25680
C          5.26340       -0.54750       -3.23840
C          3.97900       -0.95640       -3.48830
C          2.90410       -0.45090       -2.76450
C          1.63740       -0.91970       -3.02640
C          0.59190       -0.42300       -2.25430
C          0.79410        0.50800       -1.25660
C         -0.21870        0.97780       -0.48030
C          0.05750        1.89660        0.52390
C          1.32010        2.32120        0.73290
C          2.37330        1.84650       -0.05300
C          3.65020        2.28200        0.21490
C          4.72410        1.80980       -0.51900
C          4.49420        0.89330       -1.53600
C          3.17300        0.47820       -1.78430
C          2.11000        0.94700       -1.03940
H          6.10360       -0.93360       -3.79430
H          3.74500       -1.70240       -4.27130
H          1.44400       -1.64190       -3.79310
H         -0.40360       -0.77980       -2.43770
H         -0.78660        2.25420        1.11620
H          1.58960        3.04680        1.49800
H          3.84720        3.01220        1.00530
H          5.71050        2.13790       -0.26510
C         -1.60470        0.56600       -0.68580
C         -2.28030        0.84130       -1.85330
C         -3.61560        0.55360       -1.89610
C         -4.26990        0.00410       -0.80580
C         -5.61360       -0.27000       -0.84980
C         -6.29590       -0.81210        0.23170
C         -5.64200       -1.10300        1.41660
C         -6.34390       -1.65520        2.51930
C         -5.64310       -1.91910        3.63990
C         -4.28040       -1.66770        3.73870
C         -3.61990       -1.12530        2.64740
C         -2.27890       -0.85110        2.68590
C         -1.60110       -0.29280        1.59160
C         -2.25890        0.00550        0.41730
C         -3.61400       -0.28740        0.37700
C         -4.29260       -0.83700        1.48030
H         -1.74010        1.27640       -2.68920
H         -4.16840        0.77020       -2.81960
H         -6.12670       -0.04190       -1.77660
H         -7.33940       -1.02710        0.14000
H         -6.13860       -2.33480        4.48530
H         -3.71140       -1.88420        4.62710
H         -1.72060       -1.06920        3.58100
H         -0.54460       -0.12970        1.66890
C         -7.76230       -1.84470        2.29480
C         -8.25950       -3.05880        1.90790
C         -9.57690       -3.15660        1.52540
C        -10.38760       -2.02660        1.53590
C        -11.68420       -2.10220        1.09500
C        -12.48800       -0.98100        1.03940
C        -12.05510        0.27710        1.41730
C        -12.86690        1.40230        1.37250
C        -12.31870        2.58410        1.80870
C        -11.01970        2.68520        2.26400
C        -10.22710        1.55500        2.29010
C         -8.89970        1.61220        2.69840
C         -8.09670        0.50210        2.70130
C         -8.59570       -0.72780        2.30570
C         -9.92050       -0.79950        1.92250
C        -10.72550        0.35390        1.87650
H         -7.61720       -3.92270        1.90640
H         -9.99410       -4.08430        1.22630
H        -12.05840       -3.07090        0.79880
H        -13.50560       -1.10020        0.72170
H        -12.95390        3.44410        1.77510
H        -10.62570        3.63050        2.59320
H         -8.53110        2.59380        3.01360
H         -7.04850        0.54530        3.01060
C        -14.20780        1.31390        0.84140
C        -14.31440        0.83200       -0.48400
N        -15.46840        0.77810       -1.12710
C        -16.62960        1.18200       -0.55270
C        -16.53970        1.65790        0.73690
N        -15.35920        1.70500        1.36860
H        -13.42370        0.48410       -1.02770
H        -17.43120        1.99000        1.22710
C        -17.83780        1.09600       -1.34550
C        -17.95590        1.73180       -2.53810
C        -19.10960        1.57390       -3.29230
C        -20.15310        0.78610       -2.87880
C        -21.27500        0.64860       -3.64820
C        -22.31650       -0.17060       -3.19720
C        -22.22460       -0.82670       -2.00640
C        -23.23520       -1.63530       -1.54790
C        -23.14380       -2.29890       -0.34690
C        -21.99710       -2.14660        0.42060
C        -20.98520       -1.34260       -0.03050
C        -19.84100       -1.19090        0.71830
C        -18.80670       -0.39460        0.30080
C        -18.89690        0.28000       -0.89800
C        -20.03650        0.12140       -1.64580
C        -21.07570       -0.66920       -1.24130
H        -17.17850        2.37690       -2.95620
H        -19.22740        2.06420       -4.25070
H        -21.40500        1.14950       -4.58300
H        -23.20140       -0.26210       -3.83640
H        -23.91800       -2.94010        0.04670
H        -21.92190       -2.65470        1.38750
H        -19.72530       -1.71300        1.67030
H        -17.92720       -0.32910        0.90860
H         24.16600       -1.99070        2.09950
H        -24.15960       -1.78360       -2.12650
