
     RDKit          3D

 42 45  0  0  0  0  0  0  0  0999 V2000
    5.8536    1.4167    0.7601 C   0  0  0  0  0  0  0  0  0  0  0  0
    6.8107    0.4789    1.0908 C   0  0  0  0  0  0  0  0  0  0  0  0
    6.4982   -0.8472    0.9372 C   0  0  0  0  0  0  0  0  0  0  0  0
    5.2382   -1.2137    0.4572 C   0  0  0  0  0  0  0  0  0  0  0  0
    4.2935   -0.2656    0.1315 C   0  0  0  0  0  0  0  0  0  0  0  0
    4.6114    1.0639    0.2870 C   0  0  0  0  0  0  0  0  0  0  0  0
    7.7763    0.8260    1.4612 H   0  0  0  0  0  0  0  0  0  0  0  0
    7.2332   -1.5951    1.1901 H   0  0  0  0  0  0  0  0  0  0  0  0
    4.9898   -2.2588    0.3346 H   0  0  0  0  0  0  0  0  0  0  0  0
    3.9129    1.8484    0.0482 H   0  0  0  0  0  0  0  0  0  0  0  0
    2.9778   -0.6328   -0.3685 C   0  0  0  0  0  0  0  0  0  0  0  0
    2.8537   -1.7792   -1.1320 C   0  0  0  0  0  0  0  0  0  0  0  0
    1.6158   -2.1462   -1.6135 C   0  0  0  0  0  0  0  0  0  0  0  0
    0.4981   -1.3637   -1.3301 C   0  0  0  0  0  0  0  0  0  0  0  0
    0.6036   -0.2187   -0.5710 C   0  0  0  0  0  0  0  0  0  0  0  0
    1.8424    0.1347   -0.0981 C   0  0  0  0  0  0  0  0  0  0  0  0
    3.7171   -2.3875   -1.3541 H   0  0  0  0  0  0  0  0  0  0  0  0
    1.5623   -3.0429   -2.2018 H   0  0  0  0  0  0  0  0  0  0  0  0
   -0.4790   -1.6678   -1.7194 H   0  0  0  0  0  0  0  0  0  0  0  0
    1.9466    1.0187    0.4913 H   0  0  0  0  0  0  0  0  0  0  0  0
   -0.6048    0.5834   -0.2933 C   0  0  0  0  0  0  0  0  0  0  0  0
   -0.4731    1.9372   -0.1386 C   0  0  0  0  0  0  0  0  0  0  0  0
   -1.5826    2.7005    0.1176 C   0  0  0  0  0  0  0  0  0  0  0  0
   -2.8416    2.1368    0.2246 C   0  0  0  0  0  0  0  0  0  0  0  0
   -2.9578    0.7658    0.0652 C   0  0  0  0  0  0  0  0  0  0  0  0
   -1.8439    0.0081   -0.1905 C   0  0  0  0  0  0  0  0  0  0  0  0
    0.5159    2.3824   -0.2230 H   0  0  0  0  0  0  0  0  0  0  0  0
   -1.4901    3.7919    0.2440 H   0  0  0  0  0  0  0  0  0  0  0  0
   -3.7140    2.7684    0.4304 H   0  0  0  0  0  0  0  0  0  0  0  0
   -1.9760   -1.0582   -0.3073 H   0  0  0  0  0  0  0  0  0  0  0  0
   -4.2844    0.1586    0.1699 C   0  0  0  0  0  0  0  0  0  0  0  0
   -5.2634    0.6656    0.9984 C   0  0  0  0  0  0  0  0  0  0  0  0
   -6.5165    0.0969    1.0894 C   0  0  0  0  0  0  0  0  0  0  0  0
   -6.8190   -1.0154    0.3355 C   0  0  0  0  0  0  0  0  0  0  0  0
   -5.8674   -1.5449   -0.4988 C   0  0  0  0  0  0  0  0  0  0  0  0
   -4.6041   -0.9556   -0.5779 C   0  0  0  0  0  0  0  0  0  0  0  0
   -5.0535    1.5482    1.6109 H   0  0  0  0  0  0  0  0  0  0  0  0
   -7.2588    0.5206    1.7490 H   0  0  0  0  0  0  0  0  0  0  0  0
   -7.8047   -1.4830    0.3900 H   0  0  0  0  0  0  0  0  0  0  0  0
   -3.9047   -1.4266   -1.2550 H   0  0  0  0  0  0  0  0  0  0  0  0
    6.1251    2.4705    0.8914 H   0  0  0  0  0  0  0  0  0  0  0  0
   -6.1366   -2.4193   -1.0785 H   0  0  0  0  0  0  0  0  0  0  0  0
  1  2  2  0
  2  3  1  0
  3  4  2  0
  4  5  1  0
  5  6  2  0
  6  1  1  0
  2  7  1  0
  3  8  1  0
  4  9  1  0
  6 10  1  0
 11 12  2  0
 12 13  1  0
 13 14  2  0
 14 15  1  0
 15 16  2  0
 16 11  1  0
 12 17  1  0
 13 18  1  0
 14 19  1  0
 16 20  1  0
 21 22  2  0
 22 23  1  0
 23 24  2  0
 24 25  1  0
 25 26  2  0
 26 21  1  0
 22 27  1  0
 23 28  1  0
 24 29  1  0
 26 30  1  0
 31 32  2  0
 32 33  1  0
 33 34  2  0
 34 35  1  0
 35 36  2  0
 36 31  1  0
 32 37  1  0
 33 38  1  0
 34 39  1  0
 36 40  1  0
  5 11  1  0
 15 21  1  0
 25 31  1  0
  1 41  1  0
 35 42  1  0
M  END
