156

O        -24.00150        1.32870        3.84760
S        -24.32070        0.64900        2.53950
O        -25.07700        1.52940        1.61520
C        -25.05010       -0.91030        2.77580
C        -26.25820       -1.22130        3.35030
C        -26.65300       -2.54530        3.45160
C        -25.79450       -3.47850        2.96080
C        -24.60900       -3.16700        2.39730
C        -24.17090       -1.82520        2.27670
C        -22.93730       -1.28600        1.75260
C        -21.82130       -1.96580        1.21950
C        -20.70790       -1.30060        0.81650
C        -20.59430        0.09080        0.89740
C        -21.67480        0.75730        1.40690
C        -22.81050        0.06570        1.82200
H        -26.92980       -0.47040        3.73160
H        -26.05770       -4.54530        3.02200
H        -23.94930       -3.95090        2.01960
H        -21.88170       -3.06140        1.13470
H        -19.84250       -1.80490        0.40400
H        -21.65600        1.81950        1.50120
O        -15.13810       -0.19520        2.46550
S        -15.29080       -0.05690        0.98180
O        -15.02100       -1.30840        0.25300
C        -16.90450        0.58680        0.63120
C        -18.14630        0.04560        0.88820
C        -19.30820        0.72210        0.56850
C        -19.13270        1.93970       -0.01440
C        -17.89440        2.48960       -0.27870
C        -16.70980        1.80060        0.05400
C        -15.32820        2.20550       -0.10240
C        -14.76190        3.36560       -0.65090
C        -13.41230        3.60640       -0.73160
C        -12.52910        2.68370       -0.25510
C        -13.06100        1.50500        0.30490
C        -14.41200        1.30950        0.35980
H        -18.20090       -0.93040        1.33790
H        -20.03110        2.50950       -0.28850
H        -17.80260        3.46690       -0.74870
H        -15.44020        4.11460       -1.03790
H        -13.03710        4.53350       -1.18110
H        -12.38560        0.74860        0.69380
C        -11.09250        2.84890       -0.23490
C        -10.56040        3.94500        0.43230
C         -9.19080        4.07880        0.59770
C         -8.32240        3.13310        0.10880
C         -6.94060        3.23480        0.29340
C         -6.06850        2.29610       -0.15880
C         -6.55530        1.17430       -0.84260
C         -5.69600        0.22850       -1.31810
C         -6.21500       -0.89730       -2.03320
C         -7.55600       -0.93960       -2.18670
C         -8.44150        0.00070       -1.71270
C         -9.79790       -0.12100       -1.89780
C        -10.70390        0.80230       -1.42160
C        -10.21930        1.90110       -0.73440
C         -8.83460        2.02950       -0.56700
C         -7.93590        1.09780       -1.01680
H        -11.20810        4.70670        0.82780
H         -8.78460        4.95910        1.13060
H         -6.55350        4.10360        0.82180
H         -4.99790        2.33070       -0.04230
H         -5.50290       -1.61740       -2.38990
H         -7.98810       -1.78090       -2.71830
H        -10.18070       -0.98330       -2.43970
H        -11.77400        0.64460       -1.61810
N         -0.32500        0.84210       -3.66740
C         -1.05760        0.60740       -2.81730
C         -1.98370        0.32180       -1.76560
C         -3.32900        0.48950       -2.01740
C         -4.27150        0.23290       -1.05130
C         -3.77130       -0.19610        0.18760
C         -2.44020       -0.36770        0.45200
C         -1.52200       -0.11110       -0.53090
H         -3.66180        0.83400       -2.99740
H         -4.50400       -0.40380        0.95560
H         -2.06080       -0.69270        1.41340
O          3.79270        1.86990       -1.98020
S          3.68610        1.23610       -0.62210
O          3.79550        2.22250        0.47650
C          2.25500        0.24290       -0.48690
C          0.92220        0.56890       -0.53680
C         -0.08640       -0.34690       -0.40450
C          0.35350       -1.66080       -0.20670
C          1.67200       -1.98250       -0.15800
C          2.67830       -1.02070       -0.30270
C          4.10820       -1.20300       -0.29950
C          4.83460       -2.38420       -0.19190
C          6.20530       -2.39630       -0.26210
C          6.95060       -1.24720       -0.43740
C          6.25160       -0.08150       -0.54050
C          4.84960       -0.07230       -0.47300
H          0.62250        1.62280       -0.69210
H         -0.40350       -2.42250       -0.09250
H          1.92900       -3.04470        0.01030
H          4.34700       -3.35800       -0.04970
H          6.76470       -3.32570       -0.18430
H          6.77830        0.85880       -0.67860
O         11.63260        1.89760       -1.61850
S         11.68990        0.54370       -2.19170
O         11.50070        0.52650       -3.68440
C         10.50710       -0.50280       -1.41470
C          9.13360       -0.36840       -1.24720
C          8.40920       -1.31860       -0.58040
C          9.11710       -2.39550       -0.09470
C         10.47490       -2.54090       -0.25570
C         11.22610       -1.57130       -0.93830
C         12.64500       -1.49960       -1.11790
C         13.63380       -2.40000       -0.70920
C         14.96410       -2.21440       -0.87650
C         15.41600       -1.07480       -1.48510
C         14.44950       -0.14730       -1.91700
C         13.10670       -0.37100       -1.73100
H          8.66570        0.52550       -1.65500
H          8.56790       -3.16570        0.46460
H         10.95750       -3.43520        0.15660
H         13.35590       -3.35850       -0.21950
H         15.68910       -2.97280       -0.54000
H         14.81410        0.74140       -2.40060
C         16.81900       -0.79120       -1.61340
C         17.37810       -0.51270       -2.84650
C         18.70930       -0.21190       -3.02720
C         19.57560       -0.17310       -1.94430
C         20.89740        0.14980       -2.10960
C         21.70660        0.19990       -0.99380
C         21.19450       -0.07290        0.27100
C         22.00680       -0.03040        1.38710
C         21.48610       -0.32100        2.64990
C         20.16430       -0.64670        2.80290
C         19.34210       -0.68710        1.68440
C         18.02430       -0.99480        1.86110
C         17.18990       -1.02410        0.74270
C         17.68270       -0.75590       -0.51400
C         19.04780       -0.44530       -0.70350
C         19.84620       -0.40440        0.43470
H         16.76980       -0.52040       -3.75970
H         19.10370       -0.00630       -4.02800
H         21.31350        0.37510       -3.09340
H         22.75350        0.45320       -1.08350
H         22.15710       -0.27440        3.48510
H         19.72610       -0.87810        3.77240
H         17.58810       -1.22540        2.84290
H         16.14590       -1.23460        0.93320
N         25.48750        4.63230        0.21810
C         25.25430        3.55250        0.52910
C         24.95910        2.20150        0.89680
C         23.67360        1.72370        0.96350
C         23.38830        0.43500        1.31490
C         24.41910       -0.42190        1.61050
C         25.71150        0.01590        1.55530
C         25.98620        1.31580        1.20310
H         22.84420        2.40380        0.72250
H         24.23290       -1.45410        1.89380
H         26.51690       -0.67850        1.79480
H        -27.59860       -2.81830        3.90970
H         27.02590        1.62310        1.17350
