
     RDKit          3D

156177  0  0  0  0  0  0  0  0999 V2000
  -24.0015    1.3287    3.8476 O   0  0  0  0  0  0  0  0  0  0  0  0
  -24.3207    0.6490    2.5395 S   0  0  0  0  0  0  0  0  0  0  0  0
  -25.0770    1.5294    1.6152 O   0  0  0  0  0  0  0  0  0  0  0  0
  -25.0501   -0.9103    2.7758 C   0  0  0  0  0  0  0  0  0  0  0  0
  -26.2582   -1.2213    3.3503 C   0  0  0  0  0  0  0  0  0  0  0  0
  -26.6530   -2.5453    3.4516 C   0  0  0  0  0  0  0  0  0  0  0  0
  -25.7945   -3.4785    2.9608 C   0  0  0  0  0  0  0  0  0  0  0  0
  -24.6090   -3.1670    2.3973 C   0  0  0  0  0  0  0  0  0  0  0  0
  -24.1709   -1.8252    2.2767 C   0  0  0  0  0  0  0  0  0  0  0  0
  -22.9373   -1.2860    1.7526 C   0  0  0  0  0  0  0  0  0  0  0  0
  -21.8213   -1.9658    1.2195 C   0  0  0  0  0  0  0  0  0  0  0  0
  -20.7079   -1.3006    0.8165 C   0  0  0  0  0  0  0  0  0  0  0  0
  -20.5943    0.0908    0.8974 C   0  0  0  0  0  0  0  0  0  0  0  0
  -21.6748    0.7573    1.4069 C   0  0  0  0  0  0  0  0  0  0  0  0
  -22.8105    0.0657    1.8220 C   0  0  0  0  0  0  0  0  0  0  0  0
  -26.9298   -0.4704    3.7316 H   0  0  0  0  0  0  0  0  0  0  0  0
  -26.0577   -4.5453    3.0220 H   0  0  0  0  0  0  0  0  0  0  0  0
  -23.9493   -3.9509    2.0196 H   0  0  0  0  0  0  0  0  0  0  0  0
  -21.8817   -3.0614    1.1347 H   0  0  0  0  0  0  0  0  0  0  0  0
  -19.8425   -1.8049    0.4040 H   0  0  0  0  0  0  0  0  0  0  0  0
  -21.6560    1.8195    1.5012 H   0  0  0  0  0  0  0  0  0  0  0  0
  -15.1381   -0.1952    2.4655 O   0  0  0  0  0  0  0  0  0  0  0  0
  -15.2908   -0.0569    0.9818 S   0  0  0  0  0  0  0  0  0  0  0  0
  -15.0210   -1.3084    0.2530 O   0  0  0  0  0  0  0  0  0  0  0  0
  -16.9045    0.5868    0.6312 C   0  0  0  0  0  0  0  0  0  0  0  0
  -18.1463    0.0456    0.8882 C   0  0  0  0  0  0  0  0  0  0  0  0
  -19.3082    0.7221    0.5685 C   0  0  0  0  0  0  0  0  0  0  0  0
  -19.1327    1.9397   -0.0144 C   0  0  0  0  0  0  0  0  0  0  0  0
  -17.8944    2.4896   -0.2787 C   0  0  0  0  0  0  0  0  0  0  0  0
  -16.7098    1.8006    0.0540 C   0  0  0  0  0  0  0  0  0  0  0  0
  -15.3282    2.2055   -0.1024 C   0  0  0  0  0  0  0  0  0  0  0  0
  -14.7619    3.3656   -0.6509 C   0  0  0  0  0  0  0  0  0  0  0  0
  -13.4123    3.6064   -0.7316 C   0  0  0  0  0  0  0  0  0  0  0  0
  -12.5291    2.6837   -0.2551 C   0  0  0  0  0  0  0  0  0  0  0  0
  -13.0610    1.5050    0.3049 C   0  0  0  0  0  0  0  0  0  0  0  0
  -14.4120    1.3095    0.3598 C   0  0  0  0  0  0  0  0  0  0  0  0
  -18.2009   -0.9304    1.3379 H   0  0  0  0  0  0  0  0  0  0  0  0
  -20.0311    2.5095   -0.2885 H   0  0  0  0  0  0  0  0  0  0  0  0
  -17.8026    3.4669   -0.7487 H   0  0  0  0  0  0  0  0  0  0  0  0
  -15.4402    4.1146   -1.0379 H   0  0  0  0  0  0  0  0  0  0  0  0
  -13.0371    4.5335   -1.1811 H   0  0  0  0  0  0  0  0  0  0  0  0
  -12.3856    0.7486    0.6938 H   0  0  0  0  0  0  0  0  0  0  0  0
  -11.0925    2.8489   -0.2349 C   0  0  0  0  0  0  0  0  0  0  0  0
  -10.5604    3.9450    0.4323 C   0  0  0  0  0  0  0  0  0  0  0  0
   -9.1908    4.0788    0.5977 C   0  0  0  0  0  0  0  0  0  0  0  0
   -8.3224    3.1331    0.1088 C   0  0  0  0  0  0  0  0  0  0  0  0
   -6.9406    3.2348    0.2934 C   0  0  0  0  0  0  0  0  0  0  0  0
   -6.0685    2.2961   -0.1588 C   0  0  0  0  0  0  0  0  0  0  0  0
   -6.5553    1.1743   -0.8426 C   0  0  0  0  0  0  0  0  0  0  0  0
   -5.6960    0.2285   -1.3181 C   0  0  0  0  0  0  0  0  0  0  0  0
   -6.2150   -0.8973   -2.0332 C   0  0  0  0  0  0  0  0  0  0  0  0
   -7.5560   -0.9396   -2.1867 C   0  0  0  0  0  0  0  0  0  0  0  0
   -8.4415    0.0007   -1.7127 C   0  0  0  0  0  0  0  0  0  0  0  0
   -9.7979   -0.1210   -1.8978 C   0  0  0  0  0  0  0  0  0  0  0  0
  -10.7039    0.8023   -1.4216 C   0  0  0  0  0  0  0  0  0  0  0  0
  -10.2193    1.9011   -0.7344 C   0  0  0  0  0  0  0  0  0  0  0  0
   -8.8346    2.0295   -0.5670 C   0  0  0  0  0  0  0  0  0  0  0  0
   -7.9359    1.0978   -1.0168 C   0  0  0  0  0  0  0  0  0  0  0  0
  -11.2081    4.7067    0.8278 H   0  0  0  0  0  0  0  0  0  0  0  0
   -8.7846    4.9591    1.1306 H   0  0  0  0  0  0  0  0  0  0  0  0
   -6.5535    4.1036    0.8218 H   0  0  0  0  0  0  0  0  0  0  0  0
   -4.9979    2.3307   -0.0423 H   0  0  0  0  0  0  0  0  0  0  0  0
   -5.5029   -1.6174   -2.3899 H   0  0  0  0  0  0  0  0  0  0  0  0
   -7.9881   -1.7809   -2.7183 H   0  0  0  0  0  0  0  0  0  0  0  0
  -10.1807   -0.9833   -2.4397 H   0  0  0  0  0  0  0  0  0  0  0  0
  -11.7740    0.6446   -1.6181 H   0  0  0  0  0  0  0  0  0  0  0  0
   -0.3250    0.8421   -3.6674 N   0  0  0  0  0  0  0  0  0  0  0  0
   -1.0576    0.6074   -2.8173 C   0  0  0  0  0  0  0  0  0  0  0  0
   -1.9837    0.3218   -1.7656 C   0  0  0  0  0  0  0  0  0  0  0  0
   -3.3290    0.4895   -2.0174 C   0  0  0  0  0  0  0  0  0  0  0  0
   -4.2715    0.2329   -1.0513 C   0  0  0  0  0  0  0  0  0  0  0  0
   -3.7713   -0.1961    0.1876 C   0  0  0  0  0  0  0  0  0  0  0  0
   -2.4402   -0.3677    0.4520 C   0  0  0  0  0  0  0  0  0  0  0  0
   -1.5220   -0.1111   -0.5309 C   0  0  0  0  0  0  0  0  0  0  0  0
   -3.6618    0.8340   -2.9974 H   0  0  0  0  0  0  0  0  0  0  0  0
   -4.5040   -0.4038    0.9556 H   0  0  0  0  0  0  0  0  0  0  0  0
   -2.0608   -0.6927    1.4134 H   0  0  0  0  0  0  0  0  0  0  0  0
    3.7927    1.8699   -1.9802 O   0  0  0  0  0  0  0  0  0  0  0  0
    3.6861    1.2361   -0.6221 S   0  0  0  0  0  0  0  0  0  0  0  0
    3.7955    2.2225    0.4765 O   0  0  0  0  0  0  0  0  0  0  0  0
    2.2550    0.2429   -0.4869 C   0  0  0  0  0  0  0  0  0  0  0  0
    0.9222    0.5689   -0.5368 C   0  0  0  0  0  0  0  0  0  0  0  0
   -0.0864   -0.3469   -0.4045 C   0  0  0  0  0  0  0  0  0  0  0  0
    0.3535   -1.6608   -0.2067 C   0  0  0  0  0  0  0  0  0  0  0  0
    1.6720   -1.9825   -0.1580 C   0  0  0  0  0  0  0  0  0  0  0  0
    2.6783   -1.0207   -0.3027 C   0  0  0  0  0  0  0  0  0  0  0  0
    4.1082   -1.2030   -0.2995 C   0  0  0  0  0  0  0  0  0  0  0  0
    4.8346   -2.3842   -0.1919 C   0  0  0  0  0  0  0  0  0  0  0  0
    6.2053   -2.3963   -0.2621 C   0  0  0  0  0  0  0  0  0  0  0  0
    6.9506   -1.2472   -0.4374 C   0  0  0  0  0  0  0  0  0  0  0  0
    6.2516   -0.0815   -0.5405 C   0  0  0  0  0  0  0  0  0  0  0  0
    4.8496   -0.0723   -0.4730 C   0  0  0  0  0  0  0  0  0  0  0  0
    0.6225    1.6228   -0.6921 H   0  0  0  0  0  0  0  0  0  0  0  0
   -0.4035   -2.4225   -0.0925 H   0  0  0  0  0  0  0  0  0  0  0  0
    1.9290   -3.0447    0.0103 H   0  0  0  0  0  0  0  0  0  0  0  0
    4.3470   -3.3580   -0.0497 H   0  0  0  0  0  0  0  0  0  0  0  0
    6.7647   -3.3257   -0.1843 H   0  0  0  0  0  0  0  0  0  0  0  0
    6.7783    0.8588   -0.6786 H   0  0  0  0  0  0  0  0  0  0  0  0
   11.6326    1.8976   -1.6185 O   0  0  0  0  0  0  0  0  0  0  0  0
   11.6899    0.5437   -2.1917 S   0  0  0  0  0  0  0  0  0  0  0  0
   11.5007    0.5265   -3.6844 O   0  0  0  0  0  0  0  0  0  0  0  0
   10.5071   -0.5028   -1.4147 C   0  0  0  0  0  0  0  0  0  0  0  0
    9.1336   -0.3684   -1.2472 C   0  0  0  0  0  0  0  0  0  0  0  0
    8.4092   -1.3186   -0.5804 C   0  0  0  0  0  0  0  0  0  0  0  0
    9.1171   -2.3955   -0.0947 C   0  0  0  0  0  0  0  0  0  0  0  0
   10.4749   -2.5409   -0.2557 C   0  0  0  0  0  0  0  0  0  0  0  0
   11.2261   -1.5713   -0.9383 C   0  0  0  0  0  0  0  0  0  0  0  0
   12.6450   -1.4996   -1.1179 C   0  0  0  0  0  0  0  0  0  0  0  0
   13.6338   -2.4000   -0.7092 C   0  0  0  0  0  0  0  0  0  0  0  0
   14.9641   -2.2144   -0.8765 C   0  0  0  0  0  0  0  0  0  0  0  0
   15.4160   -1.0748   -1.4851 C   0  0  0  0  0  0  0  0  0  0  0  0
   14.4495   -0.1473   -1.9170 C   0  0  0  0  0  0  0  0  0  0  0  0
   13.1067   -0.3710   -1.7310 C   0  0  0  0  0  0  0  0  0  0  0  0
    8.6657    0.5255   -1.6550 H   0  0  0  0  0  0  0  0  0  0  0  0
    8.5679   -3.1657    0.4646 H   0  0  0  0  0  0  0  0  0  0  0  0
   10.9575   -3.4352    0.1566 H   0  0  0  0  0  0  0  0  0  0  0  0
   13.3559   -3.3585   -0.2195 H   0  0  0  0  0  0  0  0  0  0  0  0
   15.6891   -2.9728   -0.5400 H   0  0  0  0  0  0  0  0  0  0  0  0
   14.8141    0.7414   -2.4006 H   0  0  0  0  0  0  0  0  0  0  0  0
   16.8190   -0.7912   -1.6134 C   0  0  0  0  0  0  0  0  0  0  0  0
   17.3781   -0.5127   -2.8465 C   0  0  0  0  0  0  0  0  0  0  0  0
   18.7093   -0.2119   -3.0272 C   0  0  0  0  0  0  0  0  0  0  0  0
   19.5756   -0.1731   -1.9443 C   0  0  0  0  0  0  0  0  0  0  0  0
   20.8974    0.1498   -2.1096 C   0  0  0  0  0  0  0  0  0  0  0  0
   21.7066    0.1999   -0.9938 C   0  0  0  0  0  0  0  0  0  0  0  0
   21.1945   -0.0729    0.2710 C   0  0  0  0  0  0  0  0  0  0  0  0
   22.0068   -0.0304    1.3871 C   0  0  0  0  0  0  0  0  0  0  0  0
   21.4861   -0.3210    2.6499 C   0  0  0  0  0  0  0  0  0  0  0  0
   20.1643   -0.6467    2.8029 C   0  0  0  0  0  0  0  0  0  0  0  0
   19.3421   -0.6871    1.6844 C   0  0  0  0  0  0  0  0  0  0  0  0
   18.0243   -0.9948    1.8611 C   0  0  0  0  0  0  0  0  0  0  0  0
   17.1899   -1.0241    0.7427 C   0  0  0  0  0  0  0  0  0  0  0  0
   17.6827   -0.7559   -0.5140 C   0  0  0  0  0  0  0  0  0  0  0  0
   19.0478   -0.4453   -0.7035 C   0  0  0  0  0  0  0  0  0  0  0  0
   19.8462   -0.4044    0.4347 C   0  0  0  0  0  0  0  0  0  0  0  0
   16.7698   -0.5204   -3.7597 H   0  0  0  0  0  0  0  0  0  0  0  0
   19.1037   -0.0063   -4.0280 H   0  0  0  0  0  0  0  0  0  0  0  0
   21.3135    0.3751   -3.0934 H   0  0  0  0  0  0  0  0  0  0  0  0
   22.7535    0.4532   -1.0835 H   0  0  0  0  0  0  0  0  0  0  0  0
   22.1571   -0.2744    3.4851 H   0  0  0  0  0  0  0  0  0  0  0  0
   19.7261   -0.8781    3.7724 H   0  0  0  0  0  0  0  0  0  0  0  0
   17.5881   -1.2254    2.8429 H   0  0  0  0  0  0  0  0  0  0  0  0
   16.1459   -1.2346    0.9332 H   0  0  0  0  0  0  0  0  0  0  0  0
   25.4875    4.6323    0.2181 N   0  0  0  0  0  0  0  0  0  0  0  0
   25.2543    3.5525    0.5291 C   0  0  0  0  0  0  0  0  0  0  0  0
   24.9591    2.2015    0.8968 C   0  0  0  0  0  0  0  0  0  0  0  0
   23.6736    1.7237    0.9635 C   0  0  0  0  0  0  0  0  0  0  0  0
   23.3883    0.4350    1.3149 C   0  0  0  0  0  0  0  0  0  0  0  0
   24.4191   -0.4219    1.6105 C   0  0  0  0  0  0  0  0  0  0  0  0
   25.7115    0.0159    1.5553 C   0  0  0  0  0  0  0  0  0  0  0  0
   25.9862    1.3158    1.2031 C   0  0  0  0  0  0  0  0  0  0  0  0
   22.8442    2.4038    0.7225 H   0  0  0  0  0  0  0  0  0  0  0  0
   24.2329   -1.4541    1.8938 H   0  0  0  0  0  0  0  0  0  0  0  0
   26.5169   -0.6785    1.7948 H   0  0  0  0  0  0  0  0  0  0  0  0
  -27.5986   -2.8183    3.9097 H   0  0  0  0  0  0  0  0  0  0  0  0
   27.0259    1.6231    1.1735 H   0  0  0  0  0  0  0  0  0  0  0  0
  1  2  2  0
  2  3  2  0
  2  4  1  0
  4  5  2  0
  5  6  1  0
  6  7  2  0
  7  8  1  0
  8  9  2  0
  9 10  1  0
 10 11  2  0
 11 12  1  0
 12 13  2  0
 13 14  1  0
 14 15  2  0
 15  2  1  0
  9  4  1  0
 15 10  1  0
  5 16  1  0
  7 17  1  0
  8 18  1  0
 11 19  1  0
 12 20  1  0
 14 21  1  0
 22 23  2  0
 23 24  2  0
 23 25  1  0
 25 26  2  0
 26 27  1  0
 27 28  2  0
 28 29  1  0
 29 30  2  0
 30 31  1  0
 31 32  2  0
 32 33  1  0
 33 34  2  0
 34 35  1  0
 35 36  2  0
 36 23  1  0
 30 25  1  0
 36 31  1  0
 26 37  1  0
 28 38  1  0
 29 39  1  0
 32 40  1  0
 33 41  1  0
 35 42  1  0
 43 44  2  0
 44 45  1  0
 45 46  2  0
 46 47  1  0
 47 48  2  0
 48 49  1  0
 49 50  2  0
 50 51  1  0
 51 52  2  0
 52 53  1  0
 53 54  2  0
 54 55  1  0
 55 56  2  0
 56 57  1  0
 57 58  2  0
 56 43  1  0
 57 46  1  0
 58 49  1  0
 58 53  1  0
 44 59  1  0
 45 60  1  0
 47 61  1  0
 48 62  1  0
 51 63  1  0
 52 64  1  0
 54 65  1  0
 55 66  1  0
 67 68  3  0
 68 69  1  0
 69 70  2  0
 70 71  1  0
 71 72  2  0
 72 73  1  0
 73 74  2  0
 74 69  1  0
 70 75  1  0
 72 76  1  0
 73 77  1  0
 78 79  2  0
 79 80  2  0
 79 81  1  0
 81 82  2  0
 82 83  1  0
 83 84  2  0
 84 85  1  0
 85 86  2  0
 86 87  1  0
 87 88  2  0
 88 89  1  0
 89 90  2  0
 90 91  1  0
 91 92  2  0
 92 79  1  0
 86 81  1  0
 92 87  1  0
 82 93  1  0
 84 94  1  0
 85 95  1  0
 88 96  1  0
 89 97  1  0
 91 98  1  0
 99100  2  0
100101  2  0
100102  1  0
102103  2  0
103104  1  0
104105  2  0
105106  1  0
106107  2  0
107108  1  0
108109  2  0
109110  1  0
110111  2  0
111112  1  0
112113  2  0
113100  1  0
107102  1  0
113108  1  0
103114  1  0
105115  1  0
106116  1  0
109117  1  0
110118  1  0
112119  1  0
120121  2  0
121122  1  0
122123  2  0
123124  1  0
124125  2  0
125126  1  0
126127  2  0
127128  1  0
128129  2  0
129130  1  0
130131  2  0
131132  1  0
132133  2  0
133134  1  0
134135  2  0
133120  1  0
134123  1  0
135126  1  0
135130  1  0
121136  1  0
122137  1  0
124138  1  0
125139  1  0
128140  1  0
129141  1  0
131142  1  0
132143  1  0
144145  3  0
145146  1  0
146147  2  0
147148  1  0
148149  2  0
149150  1  0
150151  2  0
151146  1  0
147152  1  0
149153  1  0
150154  1  0
 13 27  1  0
 34 43  1  0
 50 71  1  0
 74 83  1  0
 90104  1  0
111120  1  0
127148  1  0
  6155  1  0
151156  1  0
M  END
