130

C         21.64180       -1.24100        0.63640
C         21.36890       -1.80340        1.86260
C         20.06810       -1.83680        2.25910
C         19.06420       -1.31500        1.44050
C         17.77070       -1.35290        1.85160
C         16.73940       -0.83660        1.06600
C         16.98220       -0.26720       -0.15260
C         15.95340        0.22120       -0.91750
C         16.32180        0.75870       -2.17640
C         17.62870        0.78600       -2.58720
C         18.64370        0.29300       -1.79660
C         19.96010        0.32270       -2.20890
C         20.95190       -0.17980       -1.40440
C         20.64590       -0.71880       -0.18700
C         19.32660       -0.75000        0.21300
C         18.32390       -0.23880       -0.56880
H         22.17580       -2.19160        2.46180
H         19.79290       -2.26510        3.21410
H         17.51920       -1.79580        2.81720
H         15.73020       -0.94320        1.42380
H         15.53780        1.15760       -2.82150
H         17.91810        1.19490       -3.54690
H         20.18300        0.75560       -3.19140
H         21.99340       -0.16080       -1.71030
C         14.55090        0.23630       -0.58040
C         14.05780        0.64410        0.61460
N         12.71650        0.73230        0.80450
C         11.83290        0.43120       -0.15260
C         12.31760        0.01210       -1.38590
N         13.63770       -0.06720       -1.54870
H         14.64580        0.95540        1.47540
H         11.60450       -0.23420       -2.16600
C         10.39040        0.53120        0.07140
C          9.90050        0.92920        1.28990
N          8.58380        1.02100        1.53430
C          7.65310        0.72130        0.57890
C          8.16280        0.33210       -0.62080
N          9.50160        0.23590       -0.87540
H         10.57000        1.18630        2.10390
H          7.51620        0.11170       -1.47570
C          6.23800        0.91560        0.82520
C          5.86210        2.10000        1.49120
C          4.56280        2.40870        1.78730
C          3.56940        1.53520        1.42680
C          2.23830        1.82110        1.70600
C          1.22230        0.97190        1.35630
C          1.54550       -0.19800        0.70880
C          0.55320       -1.06270        0.34630
C          0.91690       -2.24010       -0.30840
C          2.21420       -2.55380       -0.59480
C          3.22830       -1.66890       -0.22510
C          4.52720       -2.00130       -0.52100
C          5.55140       -1.12980       -0.16480
C          5.23340        0.04940        0.47520
C          3.89710        0.35970        0.77480
C          2.88260       -0.50850        0.41660
H          6.63310        2.79570        1.77690
H          4.33300        3.32110        2.29020
H          1.97300        2.74460        2.21720
H          0.17600        1.22600        1.59030
H          0.11150       -2.90440       -0.58430
H          2.51470       -3.46460       -1.10050
H          4.79250       -2.92490       -1.02510
H          6.55940       -1.46190       -0.36700
C         -0.88000       -0.84570        0.65270
C         -1.41580       -1.36600        1.82620
C         -2.76160       -1.28970        2.11320
C         -3.62310       -0.67990        1.21970
C         -4.99520       -0.60160        1.48400
C         -5.84390        0.00040        0.58290
C         -5.29880        0.51460       -0.57220
C         -6.19680        1.11290       -1.45910
C         -5.62870        1.62110       -2.61230
C         -4.29740        1.55190       -2.87900
C         -3.44380        0.95720       -1.98790
C         -2.09880        0.90790       -2.31200
C         -1.24530        0.30020       -1.41920
C         -1.73170       -0.23570       -0.23780
C         -3.08260       -0.16510        0.06170
C         -3.94810        0.43080       -0.82120
H         -0.71240       -1.84760        2.52470
H         -3.13450       -1.71410        3.03570
H         -5.34970       -1.04110        2.42880
H         -6.90270        0.06720        0.76670
H         -6.30290        2.09510       -3.31500
H         -3.91940        1.97470       -3.79950
H         -1.75420        1.34850       -3.25070
H         -0.19020        0.22430       -1.60330
C         -7.62360        1.13430       -1.18130
C         -8.44000        0.18940       -1.75840
N         -9.74350        0.15210       -1.49550
C        -10.33190        1.03460       -0.65470
C         -9.53170        1.97850       -0.07740
N         -8.19400        2.01080       -0.35020
H         -8.02980       -0.56240       -2.45490
H         -9.95750        2.71650        0.60720
C        -11.76800        0.91360       -0.35560
C        -12.45890        1.75420        0.47660
N        -13.77030        1.57890        0.71210
C        -14.50570        0.56510        0.15010
C        -13.80250       -0.25790       -0.67260
N        -12.46740       -0.08410       -0.91710
H        -11.90700        2.57800        0.94240
H        -14.29090       -1.11930       -1.11900
C        -15.88320        0.41780        0.61460
C        -16.08650        0.73250        1.97130
C        -17.27210        0.61630        2.59910
C        -18.34680        0.16230        1.86370
C        -19.54740        0.03350        2.50820
C        -20.61540       -0.42670        1.77990
C        -20.48340       -0.74670        0.44270
C        -21.58890       -1.18860       -0.23940
C        -21.44590       -1.48900       -1.57490
C        -20.24520       -1.35910       -2.23010
C        -19.12170       -0.91260       -1.54360
C        -17.90730       -0.77190       -2.17910
C        -16.82940       -0.32560       -1.44960
C        -16.95420       -0.02230       -0.10220
C        -18.19630       -0.15490        0.52600
C        -19.26050       -0.61340       -0.21140
H        -15.22100        1.10010        2.55830
H        -17.40920        0.87250        3.67260
H        -19.63130        0.29050        3.56200
H        -21.56750       -0.52620        2.31000
H        -22.34290       -1.83820       -2.08620
H        -20.13840       -1.59710       -3.27320
H        -17.78280       -0.99780       -3.22190
H        -15.91590       -0.16580       -1.95900
H         22.67700       -1.20880        0.31270
H        -22.52320       -1.28550        0.29780
