
     RDKit          3D

110123  0  0  0  0  0  0  0  0999 V2000
   15.7022   -3.3425   -2.2791 N   0  0  0  0  0  0  0  0  0  0  0  0
   16.1535   -2.6118   -1.4870 C   0  0  0  0  0  0  0  0  0  0  0  0
   16.7078   -1.6859   -0.5226 C   0  0  0  0  0  0  0  0  0  0  0  0
   18.0595   -1.4417   -0.4779 C   0  0  0  0  0  0  0  0  0  0  0  0
   18.5810   -0.5543    0.4364 C   0  0  0  0  0  0  0  0  0  0  0  0
   17.7516    0.1015    1.3206 C   0  0  0  0  0  0  0  0  0  0  0  0
   16.4117   -0.1611    1.2537 C   0  0  0  0  0  0  0  0  0  0  0  0
   15.8533   -1.0366    0.3593 C   0  0  0  0  0  0  0  0  0  0  0  0
   18.6947   -1.9658   -1.1811 H   0  0  0  0  0  0  0  0  0  0  0  0
   18.2026    0.8009    2.0354 H   0  0  0  0  0  0  0  0  0  0  0  0
   15.7578    0.3491    1.9471 H   0  0  0  0  0  0  0  0  0  0  0  0
   14.4107   -1.3463    0.3467 C   0  0  0  0  0  0  0  0  0  0  0  0
   14.0146   -2.6786    0.5285 C   0  0  0  0  0  0  0  0  0  0  0  0
   12.6878   -2.9669    0.5728 C   0  0  0  0  0  0  0  0  0  0  0  0
   11.7297   -1.9842    0.4433 C   0  0  0  0  0  0  0  0  0  0  0  0
   10.3872   -2.3000    0.4811 C   0  0  0  0  0  0  0  0  0  0  0  0
    9.4335   -1.3368    0.3449 C   0  0  0  0  0  0  0  0  0  0  0  0
    9.7700   -0.0121    0.1663 C   0  0  0  0  0  0  0  0  0  0  0  0
    8.8115    0.9538    0.0031 C   0  0  0  0  0  0  0  0  0  0  0  0
    9.2456    2.2748   -0.2112 C   0  0  0  0  0  0  0  0  0  0  0  0
   10.5659    2.6147   -0.2572 C   0  0  0  0  0  0  0  0  0  0  0  0
   11.5088    1.6064   -0.0842 C   0  0  0  0  0  0  0  0  0  0  0  0
   12.8460    1.9243   -0.1408 C   0  0  0  0  0  0  0  0  0  0  0  0
   13.8178    0.9523    0.0083 C   0  0  0  0  0  0  0  0  0  0  0  0
   13.4616   -0.3693    0.2163 C   0  0  0  0  0  0  0  0  0  0  0  0
   12.0905   -0.6677    0.2630 C   0  0  0  0  0  0  0  0  0  0  0  0
   11.1275    0.3001    0.1269 C   0  0  0  0  0  0  0  0  0  0  0  0
   14.8026   -3.4320    0.6318 H   0  0  0  0  0  0  0  0  0  0  0  0
   12.3605   -3.9846    0.7130 H   0  0  0  0  0  0  0  0  0  0  0  0
   10.1177   -3.3202    0.6215 H   0  0  0  0  0  0  0  0  0  0  0  0
    8.3721   -1.6390    0.3408 H   0  0  0  0  0  0  0  0  0  0  0  0
    8.5214    3.0784   -0.3474 H   0  0  0  0  0  0  0  0  0  0  0  0
   10.9351    3.6142   -0.4178 H   0  0  0  0  0  0  0  0  0  0  0  0
   13.1274    2.9762   -0.3098 H   0  0  0  0  0  0  0  0  0  0  0  0
   14.8472    1.2619   -0.0625 H   0  0  0  0  0  0  0  0  0  0  0  0
    7.3913    0.7520   -0.0158 C   0  0  0  0  0  0  0  0  0  0  0  0
    6.6232    0.0628    0.8769 C   0  0  0  0  0  0  0  0  0  0  0  0
    5.2897    0.0487    0.7775 N   0  0  0  0  0  0  0  0  0  0  0  0
    4.6250    0.7085   -0.1997 C   0  0  0  0  0  0  0  0  0  0  0  0
    5.4115    1.3986   -1.0901 C   0  0  0  0  0  0  0  0  0  0  0  0
    6.7347    1.4339   -1.0217 N   0  0  0  0  0  0  0  0  0  0  0  0
    7.0987   -0.4612    1.7063 H   0  0  0  0  0  0  0  0  0  0  0  0
    4.9634    1.9619   -1.9129 H   0  0  0  0  0  0  0  0  0  0  0  0
   -0.0047    2.6497   -3.2928 N   0  0  0  0  0  0  0  0  0  0  0  0
    0.4976    2.0575   -2.4113 C   0  0  0  0  0  0  0  0  0  0  0  0
    1.1195    1.3631   -1.3279 C   0  0  0  0  0  0  0  0  0  0  0  0
    2.5283    1.3516   -1.3086 C   0  0  0  0  0  0  0  0  0  0  0  0
    3.1740    0.7089   -0.2814 C   0  0  0  0  0  0  0  0  0  0  0  0
    2.4238    0.0892    0.7026 C   0  0  0  0  0  0  0  0  0  0  0  0
    1.0495    0.0966    0.6878 C   0  0  0  0  0  0  0  0  0  0  0  0
    0.4095    0.7375   -0.3325 C   0  0  0  0  0  0  0  0  0  0  0  0
    3.0459    1.8513   -2.1102 H   0  0  0  0  0  0  0  0  0  0  0  0
    2.8996   -0.4268    1.5244 H   0  0  0  0  0  0  0  0  0  0  0  0
    0.4843   -0.3886    1.4560 H   0  0  0  0  0  0  0  0  0  0  0  0
   -4.5361    0.0523   -3.5924 N   0  0  0  0  0  0  0  0  0  0  0  0
   -3.9476    0.3174   -2.6535 C   0  0  0  0  0  0  0  0  0  0  0  0
   -3.1888    0.6592   -1.4894 C   0  0  0  0  0  0  0  0  0  0  0  0
   -1.8054    0.4949   -1.4878 C   0  0  0  0  0  0  0  0  0  0  0  0
   -1.0324    0.8036   -0.3896 C   0  0  0  0  0  0  0  0  0  0  0  0
   -1.7306    1.2877    0.7245 C   0  0  0  0  0  0  0  0  0  0  0  0
   -3.0957    1.4484    0.7194 C   0  0  0  0  0  0  0  0  0  0  0  0
   -3.8642    1.1437   -0.3814 C   0  0  0  0  0  0  0  0  0  0  0  0
   -1.3040    0.0990   -2.3685 H   0  0  0  0  0  0  0  0  0  0  0  0
   -1.1827    1.5427    1.6141 H   0  0  0  0  0  0  0  0  0  0  0  0
   -3.6324    1.8304    1.6055 H   0  0  0  0  0  0  0  0  0  0  0  0
   -5.2896    1.3994   -0.3880 C   0  0  0  0  0  0  0  0  0  0  0  0
   -5.6943    2.7223   -0.6438 C   0  0  0  0  0  0  0  0  0  0  0  0
   -7.0398    3.0081   -0.6455 C   0  0  0  0  0  0  0  0  0  0  0  0
   -7.9790    2.0294   -0.4048 C   0  0  0  0  0  0  0  0  0  0  0  0
   -9.3254    2.2939   -0.4033 C   0  0  0  0  0  0  0  0  0  0  0  0
  -10.2645    1.2916   -0.1624 C   0  0  0  0  0  0  0  0  0  0  0  0
   -9.8914   -0.0097    0.0831 C   0  0  0  0  0  0  0  0  0  0  0  0
  -10.8354   -0.9619    0.3273 C   0  0  0  0  0  0  0  0  0  0  0  0
  -10.3557   -2.2623    0.5977 C   0  0  0  0  0  0  0  0  0  0  0  0
   -9.0285   -2.5809    0.6156 C   0  0  0  0  0  0  0  0  0  0  0  0
   -8.1151   -1.5680    0.3542 C   0  0  0  0  0  0  0  0  0  0  0  0
   -6.7621   -1.8471    0.3624 C   0  0  0  0  0  0  0  0  0  0  0  0
   -5.8210   -0.8561    0.1097 C   0  0  0  0  0  0  0  0  0  0  0  0
   -6.2171    0.4376   -0.1514 C   0  0  0  0  0  0  0  0  0  0  0  0
   -7.5927    0.7267   -0.1537 C   0  0  0  0  0  0  0  0  0  0  0  0
   -8.5171   -0.2735    0.0846 C   0  0  0  0  0  0  0  0  0  0  0  0
   -4.9329    3.4554   -0.8283 H   0  0  0  0  0  0  0  0  0  0  0  0
   -7.3833    4.0270   -0.8404 H   0  0  0  0  0  0  0  0  0  0  0  0
   -9.6480    3.3261   -0.5985 H   0  0  0  0  0  0  0  0  0  0  0  0
  -11.2907    1.5684   -0.1265 H   0  0  0  0  0  0  0  0  0  0  0  0
  -11.1039   -3.0123    0.7963 H   0  0  0  0  0  0  0  0  0  0  0  0
   -8.6845   -3.5894    0.8262 H   0  0  0  0  0  0  0  0  0  0  0  0
   -6.4451   -2.8726    0.5724 H   0  0  0  0  0  0  0  0  0  0  0  0
   -4.7579   -1.0706    0.1082 H   0  0  0  0  0  0  0  0  0  0  0  0
  -12.2775   -0.7971    0.3539 C   0  0  0  0  0  0  0  0  0  0  0  0
  -13.0211   -0.1488   -0.5879 C   0  0  0  0  0  0  0  0  0  0  0  0
  -14.3872   -0.1313   -0.5644 N   0  0  0  0  0  0  0  0  0  0  0  0
  -15.0843   -0.7668    0.4080 C   0  0  0  0  0  0  0  0  0  0  0  0
  -14.3439   -1.4264    1.3648 C   0  0  0  0  0  0  0  0  0  0  0  0
  -13.0047   -1.4339    1.3281 N   0  0  0  0  0  0  0  0  0  0  0  0
  -12.5215    0.3561   -1.4333 H   0  0  0  0  0  0  0  0  0  0  0  0
  -14.8921   -1.9536    2.1637 H   0  0  0  0  0  0  0  0  0  0  0  0
  -20.1303   -2.4424    3.1836 N   0  0  0  0  0  0  0  0  0  0  0  0
  -19.5075   -1.9284    2.3516 C   0  0  0  0  0  0  0  0  0  0  0  0
  -18.7157   -1.3093    1.3153 C   0  0  0  0  0  0  0  0  0  0  0  0
  -17.3380   -1.3203    1.3473 C   0  0  0  0  0  0  0  0  0  0  0  0
  -16.5412   -0.7441    0.3884 C   0  0  0  0  0  0  0  0  0  0  0  0
  -17.1958   -0.1258   -0.6546 C   0  0  0  0  0  0  0  0  0  0  0  0
  -18.5953   -0.0902   -0.7292 C   0  0  0  0  0  0  0  0  0  0  0  0
  -19.3454   -0.6851    0.2617 C   0  0  0  0  0  0  0  0  0  0  0  0
  -16.8762   -1.8116    2.1814 H   0  0  0  0  0  0  0  0  0  0  0  0
  -16.6374    0.3539   -1.4515 H   0  0  0  0  0  0  0  0  0  0  0  0
  -19.1220    0.3903   -1.5410 H   0  0  0  0  0  0  0  0  0  0  0  0
   19.6385   -0.3506    0.4872 H   0  0  0  0  0  0  0  0  0  0  0  0
  -20.4395   -0.6705    0.2266 H   0  0  0  0  0  0  0  0  0  0  0  0
  1  2  3  0
  2  3  1  0
  3  4  2  0
  4  5  1  0
  5  6  2  0
  6  7  1  0
  7  8  2  0
  8  3  1  0
  4  9  1  0
  6 10  1  0
  7 11  1  0
 12 13  2  0
 13 14  1  0
 14 15  2  0
 15 16  1  0
 16 17  2  0
 17 18  1  0
 18 19  2  0
 19 20  1  0
 20 21  2  0
 21 22  1  0
 22 23  2  0
 23 24  1  0
 24 25  2  0
 25 26  1  0
 26 27  2  0
 25 12  1  0
 26 15  1  0
 27 18  1  0
 27 22  1  0
 13 28  1  0
 14 29  1  0
 16 30  1  0
 17 31  1  0
 20 32  1  0
 21 33  1  0
 23 34  1  0
 24 35  1  0
 36 37  2  0
 37 38  1  0
 38 39  2  0
 39 40  1  0
 40 41  2  0
 41 36  1  0
 37 42  1  0
 40 43  1  0
 44 45  3  0
 45 46  1  0
 46 47  2  0
 47 48  1  0
 48 49  2  0
 49 50  1  0
 50 51  2  0
 51 46  1  0
 47 52  1  0
 49 53  1  0
 50 54  1  0
 55 56  3  0
 56 57  1  0
 57 58  2  0
 58 59  1  0
 59 60  2  0
 60 61  1  0
 61 62  2  0
 62 57  1  0
 58 63  1  0
 60 64  1  0
 61 65  1  0
 66 67  2  0
 67 68  1  0
 68 69  2  0
 69 70  1  0
 70 71  2  0
 71 72  1  0
 72 73  2  0
 73 74  1  0
 74 75  2  0
 75 76  1  0
 76 77  2  0
 77 78  1  0
 78 79  2  0
 79 80  1  0
 80 81  2  0
 79 66  1  0
 80 69  1  0
 81 72  1  0
 81 76  1  0
 67 82  1  0
 68 83  1  0
 70 84  1  0
 71 85  1  0
 74 86  1  0
 75 87  1  0
 77 88  1  0
 78 89  1  0
 90 91  2  0
 91 92  1  0
 92 93  2  0
 93 94  1  0
 94 95  2  0
 95 90  1  0
 91 96  1  0
 94 97  1  0
 98 99  3  0
 99100  1  0
100101  2  0
101102  1  0
102103  2  0
103104  1  0
104105  2  0
105100  1  0
101106  1  0
103107  1  0
104108  1  0
  8 12  1  0
 19 36  1  0
 39 48  1  0
 51 59  1  0
 62 66  1  0
 73 90  1  0
 93102  1  0
  5109  1  0
105110  1  0
M  END
