34

C          7.64750       -0.10350        0.28530
C          6.97480       -0.08310       -0.91000
N          5.61670       -0.06480       -0.92950
C          4.94220       -0.06680        0.22390
C          5.62080       -0.08730        1.42400
N          6.96660       -0.10540        1.43590
H          7.53730       -0.08170       -1.83980
H          5.11170       -0.08950        2.36690
C          3.48020       -0.04720        0.21200
C          2.79800       -0.02670       -0.98180
N          1.46860       -0.00840       -1.04070
C          0.76320       -0.00980        0.08580
C          1.43480       -0.03020        1.29110
N          2.77100       -0.04860        1.35460
H          3.34010       -0.02500       -1.91640
H          0.87640       -0.03160        2.21990
C         -0.70020        0.00950        0.11690
C         -1.44140        0.03050       -1.04710
N         -2.78660        0.04840       -1.04390
C         -3.47540        0.04630        0.13310
C         -2.73370        0.02540        1.28480
N         -1.38740        0.00760        1.27260
H         -0.86800        0.03180       -1.98290
H         -3.24240        0.02320        2.23390
C         -4.93960        0.06630        0.08750
C         -5.73470        0.06620        1.20740
N         -7.09780        0.08530        1.11510
C         -7.71590        0.10490       -0.07720
C         -6.91920        0.10500       -1.20260
N         -5.57930        0.08630       -1.11060
H         -5.24820        0.05050        2.17170
H         -7.41420        0.12080       -2.16520
H          8.73170       -0.11840        0.33390
H         -8.79770        0.12010       -0.16130
