
     RDKit          3D

 34 37  0  0  0  0  0  0  0  0999 V2000
    7.6475   -0.1035    0.2853 C   0  0  0  0  0  0  0  0  0  0  0  0
    6.9748   -0.0831   -0.9100 C   0  0  0  0  0  0  0  0  0  0  0  0
    5.6167   -0.0648   -0.9295 N   0  0  0  0  0  0  0  0  0  0  0  0
    4.9422   -0.0668    0.2239 C   0  0  0  0  0  0  0  0  0  0  0  0
    5.6208   -0.0873    1.4240 C   0  0  0  0  0  0  0  0  0  0  0  0
    6.9666   -0.1054    1.4359 N   0  0  0  0  0  0  0  0  0  0  0  0
    7.5373   -0.0817   -1.8398 H   0  0  0  0  0  0  0  0  0  0  0  0
    5.1117   -0.0895    2.3669 H   0  0  0  0  0  0  0  0  0  0  0  0
    3.4802   -0.0472    0.2120 C   0  0  0  0  0  0  0  0  0  0  0  0
    2.7980   -0.0267   -0.9818 C   0  0  0  0  0  0  0  0  0  0  0  0
    1.4686   -0.0084   -1.0407 N   0  0  0  0  0  0  0  0  0  0  0  0
    0.7632   -0.0098    0.0858 C   0  0  0  0  0  0  0  0  0  0  0  0
    1.4348   -0.0302    1.2911 C   0  0  0  0  0  0  0  0  0  0  0  0
    2.7710   -0.0486    1.3546 N   0  0  0  0  0  0  0  0  0  0  0  0
    3.3401   -0.0250   -1.9164 H   0  0  0  0  0  0  0  0  0  0  0  0
    0.8764   -0.0316    2.2199 H   0  0  0  0  0  0  0  0  0  0  0  0
   -0.7002    0.0095    0.1169 C   0  0  0  0  0  0  0  0  0  0  0  0
   -1.4414    0.0305   -1.0471 C   0  0  0  0  0  0  0  0  0  0  0  0
   -2.7866    0.0484   -1.0439 N   0  0  0  0  0  0  0  0  0  0  0  0
   -3.4754    0.0463    0.1331 C   0  0  0  0  0  0  0  0  0  0  0  0
   -2.7337    0.0254    1.2848 C   0  0  0  0  0  0  0  0  0  0  0  0
   -1.3874    0.0076    1.2726 N   0  0  0  0  0  0  0  0  0  0  0  0
   -0.8680    0.0318   -1.9829 H   0  0  0  0  0  0  0  0  0  0  0  0
   -3.2424    0.0232    2.2339 H   0  0  0  0  0  0  0  0  0  0  0  0
   -4.9396    0.0663    0.0875 C   0  0  0  0  0  0  0  0  0  0  0  0
   -5.7347    0.0662    1.2074 C   0  0  0  0  0  0  0  0  0  0  0  0
   -7.0978    0.0853    1.1151 N   0  0  0  0  0  0  0  0  0  0  0  0
   -7.7159    0.1049   -0.0772 C   0  0  0  0  0  0  0  0  0  0  0  0
   -6.9192    0.1050   -1.2026 C   0  0  0  0  0  0  0  0  0  0  0  0
   -5.5793    0.0863   -1.1106 N   0  0  0  0  0  0  0  0  0  0  0  0
   -5.2482    0.0505    2.1717 H   0  0  0  0  0  0  0  0  0  0  0  0
   -7.4142    0.1208   -2.1652 H   0  0  0  0  0  0  0  0  0  0  0  0
    8.7317   -0.1184    0.3339 H   0  0  0  0  0  0  0  0  0  0  0  0
   -8.7977    0.1201   -0.1613 H   0  0  0  0  0  0  0  0  0  0  0  0
  1  2  2  0
  2  3  1  0
  3  4  2  0
  4  5  1  0
  5  6  2  0
  6  1  1  0
  2  7  1  0
  5  8  1  0
  9 10  2  0
 10 11  1  0
 11 12  2  0
 12 13  1  0
 13 14  2  0
 14  9  1  0
 10 15  1  0
 13 16  1  0
 17 18  2  0
 18 19  1  0
 19 20  2  0
 20 21  1  0
 21 22  2  0
 22 17  1  0
 18 23  1  0
 21 24  1  0
 25 26  2  0
 26 27  1  0
 27 28  2  0
 28 29  1  0
 29 30  2  0
 30 25  1  0
 26 31  1  0
 29 32  1  0
  4  9  1  0
 12 17  1  0
 20 25  1  0
  1 33  1  0
 28 34  1  0
M  END
