66

C         -9.91130        0.53370        0.80100
C         -9.61700        1.16800        1.98960
C         -8.30500        1.28150        2.39700
C         -7.28400        0.76080        1.61720
C         -5.98730        0.87500        2.01670
C         -4.98930        0.34180        1.20850
C         -5.22690       -0.30380        0.01920
C         -4.22060       -0.79550       -0.75070
C         -4.57740       -1.40710       -1.96500
C         -5.88540       -1.50500       -2.34850
C         -6.92410       -1.00520       -1.55760
C         -8.22470       -1.11490       -1.97030
C         -9.20940       -0.60770       -1.17980
C         -8.90570        0.00310        0.00040
C         -7.58680        0.12590        0.42710
C         -6.57090       -0.40600       -0.37300
H        -10.40690        1.57730        2.60490
H         -8.04270        1.76670        3.31140
H         -5.74930        1.36360        2.92980
H         -3.94810        0.48280        1.50360
H         -3.82130       -1.81400       -2.62270
H         -6.18040       -1.97590       -3.28610
H         -8.43330       -1.60760       -2.92450
H        -10.25140       -0.67880       -1.47150
C         -2.79770       -0.73850       -0.45970
C         -2.20730       -1.07610        0.72870
N         -0.88110       -1.08080        0.84170
C         -0.02950       -0.76760       -0.16450
C         -0.61210       -0.43620       -1.34470
N         -1.93310       -0.42570       -1.47080
H         -2.83840       -1.38330        1.58730
H          0.03540       -0.21280       -2.21440
C          1.37690       -0.93770        0.14710
C          1.74040       -2.08410        0.89070
C          3.00780       -2.37170        1.26690
C          4.00220       -1.48160        0.89610
C          5.29760       -1.78960        1.29230
C          6.32140       -0.93340        0.95230
C          6.06110        0.21110        0.22770
C          7.08400        1.05800       -0.06410
C          6.74110        2.24260       -0.76530
C          5.46540        2.52100       -1.13280
C          4.42270        1.63910       -0.83160
C          3.14800        1.92610       -1.18820
C          2.11460        1.08880       -0.88790
C          2.39090       -0.08050       -0.19580
C          3.69480       -0.36390        0.18220
C          4.74520        0.49190       -0.15240
H          0.95230       -2.77200        1.17470
H          3.26930       -3.27140        1.84620
H          5.47000       -2.68320        1.85130
H          7.28590       -1.22310        1.33790
H          7.53340        2.93970       -1.00930
H          5.19940        3.42100       -1.66600
H          2.93110        2.83730       -1.72400
H          1.10420        1.31790       -1.12410
C          8.48360        0.89210        0.28150
C          9.16290       -0.25450        0.08040
N         10.50500       -0.37600        0.30510
C         11.18800        0.68710        0.74410
C         10.49590        1.86480        0.95000
N          9.18610        1.97830        0.73000
H          8.72000       -1.17020       -0.31110
H         11.09780        2.70990        1.30960
H        -10.93380        0.42130        0.44030
H         12.25740        0.60710        0.92790
