
     RDKit          3D

 66 73  0  0  0  0  0  0  0  0999 V2000
  -16.1137   -0.2265   -0.6485 C   0  0  0  0  0  0  0  0  0  0  0  0
  -15.4372   -0.3580    0.5458 C   0  0  0  0  0  0  0  0  0  0  0  0
  -14.0924   -0.3287    0.5104 N   0  0  0  0  0  0  0  0  0  0  0  0
  -13.3994   -0.1789   -0.6243 C   0  0  0  0  0  0  0  0  0  0  0  0
  -14.1001   -0.0509   -1.7937 C   0  0  0  0  0  0  0  0  0  0  0  0
  -15.4372   -0.0737   -1.8112 N   0  0  0  0  0  0  0  0  0  0  0  0
  -15.9366   -0.4817    1.4946 H   0  0  0  0  0  0  0  0  0  0  0  0
  -13.5470    0.0726   -2.7319 H   0  0  0  0  0  0  0  0  0  0  0  0
  -11.9379   -0.1544   -0.6023 C   0  0  0  0  0  0  0  0  0  0  0  0
  -11.2762   -0.2873    0.6014 C   0  0  0  0  0  0  0  0  0  0  0  0
   -9.9468   -0.2616    0.5936 N   0  0  0  0  0  0  0  0  0  0  0  0
   -9.1861   -0.1126   -0.5242 C   0  0  0  0  0  0  0  0  0  0  0  0
   -9.8647    0.0175   -1.7075 C   0  0  0  0  0  0  0  0  0  0  0  0
  -11.2304   -0.0052   -1.7303 N   0  0  0  0  0  0  0  0  0  0  0  0
  -11.8612   -0.4082    1.5138 H   0  0  0  0  0  0  0  0  0  0  0  0
   -9.3196    0.1386   -2.6287 H   0  0  0  0  0  0  0  0  0  0  0  0
   -7.7328   -0.1012   -0.3884 C   0  0  0  0  0  0  0  0  0  0  0  0
   -6.8994    0.0450   -1.4685 C   0  0  0  0  0  0  0  0  0  0  0  0
   -5.5415    0.0532   -1.3175 N   0  0  0  0  0  0  0  0  0  0  0  0
   -4.9689   -0.0812   -0.1091 C   0  0  0  0  0  0  0  0  0  0  0  0
   -5.8076   -0.2272    0.9685 C   0  0  0  0  0  0  0  0  0  0  0  0
   -7.1559   -0.2373    0.8348 N   0  0  0  0  0  0  0  0  0  0  0  0
   -7.3365    0.1560   -2.4595 H   0  0  0  0  0  0  0  0  0  0  0  0
   -5.3673   -0.3364    1.9455 H   0  0  0  0  0  0  0  0  0  0  0  0
   -3.5045   -0.0655    0.0007 C   0  0  0  0  0  0  0  0  0  0  0  0
   -2.8316   -0.1956    1.1927 C   0  0  0  0  0  0  0  0  0  0  0  0
   -1.4784   -0.1782    1.2718 N   0  0  0  0  0  0  0  0  0  0  0  0
   -0.7426   -0.0298    0.1613 C   0  0  0  0  0  0  0  0  0  0  0  0
   -1.4000    0.1022   -1.0431 C   0  0  0  0  0  0  0  0  0  0  0  0
   -2.7421    0.0845   -1.1182 N   0  0  0  0  0  0  0  0  0  0  0  0
   -3.3618   -0.3166    2.1091 H   0  0  0  0  0  0  0  0  0  0  0  0
   -0.7756    0.2213   -1.9287 H   0  0  0  0  0  0  0  0  0  0  0  0
    0.7244   -0.0055    0.1990 C   0  0  0  0  0  0  0  0  0  0  0  0
    1.4232   -0.1346    1.3785 C   0  0  0  0  0  0  0  0  0  0  0  0
    2.7762   -0.1130    1.4159 N   0  0  0  0  0  0  0  0  0  0  0  0
    3.4918    0.0373    0.2871 C   0  0  0  0  0  0  0  0  0  0  0  0
    2.7855    0.1660   -0.8909 C   0  0  0  0  0  0  0  0  0  0  0  0
    1.4377    0.1446   -0.9284 N   0  0  0  0  0  0  0  0  0  0  0  0
    0.8560   -0.2559    2.2923 H   0  0  0  0  0  0  0  0  0  0  0  0
    3.3806    0.2877   -1.8020 H   0  0  0  0  0  0  0  0  0  0  0  0
    4.9533    0.0636    0.2953 C   0  0  0  0  0  0  0  0  0  0  0  0
    5.6866   -0.0640    1.4548 C   0  0  0  0  0  0  0  0  0  0  0  0
    7.0391   -0.0338    1.4070 N   0  0  0  0  0  0  0  0  0  0  0  0
    7.7062    0.1191    0.2484 C   0  0  0  0  0  0  0  0  0  0  0  0
    6.9501    0.2439   -0.8905 C   0  0  0  0  0  0  0  0  0  0  0  0
    5.5982    0.2174   -0.8738 N   0  0  0  0  0  0  0  0  0  0  0  0
    5.1388   -0.1855    2.3736 H   0  0  0  0  0  0  0  0  0  0  0  0
    7.4348    0.3686   -1.8445 H   0  0  0  0  0  0  0  0  0  0  0  0
    9.1691    0.1418    0.2729 C   0  0  0  0  0  0  0  0  0  0  0  0
    9.9442    0.2928   -0.8545 C   0  0  0  0  0  0  0  0  0  0  0  0
   11.3077    0.3089   -0.7913 N   0  0  0  0  0  0  0  0  0  0  0  0
   11.9563    0.1778    0.3767 C   0  0  0  0  0  0  0  0  0  0  0  0
   11.1839    0.0263    1.5093 C   0  0  0  0  0  0  0  0  0  0  0  0
    9.8408    0.0110    1.4422 N   0  0  0  0  0  0  0  0  0  0  0  0
    9.4457    0.4015   -1.8174 H   0  0  0  0  0  0  0  0  0  0  0  0
   11.7166   -0.0800    2.4568 H   0  0  0  0  0  0  0  0  0  0  0  0
   13.4118    0.1914    0.4709 C   0  0  0  0  0  0  0  0  0  0  0  0
   14.1696    0.3428   -0.6695 C   0  0  0  0  0  0  0  0  0  0  0  0
   15.5138    0.3612   -0.6347 N   0  0  0  0  0  0  0  0  0  0  0  0
   16.1616    0.2288    0.5435 C   0  0  0  0  0  0  0  0  0  0  0  0
   15.4249    0.0760    1.6980 C   0  0  0  0  0  0  0  0  0  0  0  0
   14.0666    0.0608    1.6354 N   0  0  0  0  0  0  0  0  0  0  0  0
   13.6654    0.4521   -1.6382 H   0  0  0  0  0  0  0  0  0  0  0  0
   15.9445   -0.0309    2.6485 H   0  0  0  0  0  0  0  0  0  0  0  0
  -17.2095   -0.2490   -0.6319 H   0  0  0  0  0  0  0  0  0  0  0  0
   17.2373    0.2364    0.6276 H   0  0  0  0  0  0  0  0  0  0  0  0
  1  2  2  0
  2  3  1  0
  3  4  2  0
  4  5  1  0
  5  6  2  0
  6  1  1  0
  2  7  1  0
  5  8  1  0
  9 10  2  0
 10 11  1  0
 11 12  2  0
 12 13  1  0
 13 14  2  0
 14  9  1  0
 10 15  1  0
 13 16  1  0
 17 18  2  0
 18 19  1  0
 19 20  2  0
 20 21  1  0
 21 22  2  0
 22 17  1  0
 18 23  1  0
 21 24  1  0
 25 26  2  0
 26 27  1  0
 27 28  2  0
 28 29  1  0
 29 30  2  0
 30 25  1  0
 26 31  1  0
 29 32  1  0
 33 34  2  0
 34 35  1  0
 35 36  2  0
 36 37  1  0
 37 38  2  0
 38 33  1  0
 34 39  1  0
 37 40  1  0
 41 42  2  0
 42 43  1  0
 43 44  2  0
 44 45  1  0
 45 46  2  0
 46 41  1  0
 42 47  1  0
 45 48  1  0
 49 50  2  0
 50 51  1  0
 51 52  2  0
 52 53  1  0
 53 54  2  0
 54 49  1  0
 50 55  1  0
 53 56  1  0
 57 58  2  0
 58 59  1  0
 59 60  2  0
 60 61  1  0
 61 62  2  0
 62 57  1  0
 58 63  1  0
 61 64  1  0
  4  9  1  0
 12 17  1  0
 20 25  1  0
 28 33  1  0
 36 41  1  0
 44 49  1  0
 52 57  1  0
  1 65  1  0
 60 66  1  0
M  END
