
     RDKit          3D

130145  0  0  0  0  0  0  0  0999 V2000
  -21.0687   -2.3845    1.1860 O   0  0  0  0  0  0  0  0  0  0  0  0
  -21.0116   -1.9836   -0.2582 S   0  0  0  0  0  0  0  0  0  0  0  0
  -20.8931   -3.1719   -1.1696 O   0  0  0  0  0  0  0  0  0  0  0  0
  -22.3650   -0.9721   -0.7115 C   0  0  0  0  0  0  0  0  0  0  0  0
  -23.7018   -1.2447   -0.7238 C   0  0  0  0  0  0  0  0  0  0  0  0
  -24.5809   -0.2738   -1.1241 C   0  0  0  0  0  0  0  0  0  0  0  0
  -24.1001    0.9554   -1.5053 C   0  0  0  0  0  0  0  0  0  0  0  0
  -22.7635    1.1964   -1.4822 C   0  0  0  0  0  0  0  0  0  0  0  0
  -21.8159    0.2321   -1.0790 C   0  0  0  0  0  0  0  0  0  0  0  0
  -20.3933    0.3137   -1.0046 C   0  0  0  0  0  0  0  0  0  0  0  0
  -19.5630    1.4095   -1.3270 C   0  0  0  0  0  0  0  0  0  0  0  0
  -18.2085    1.3549   -1.2230 C   0  0  0  0  0  0  0  0  0  0  0  0
  -17.6065    0.2040   -0.7914 C   0  0  0  0  0  0  0  0  0  0  0  0
  -18.3800   -0.8692   -0.4721 C   0  0  0  0  0  0  0  0  0  0  0  0
  -19.7552   -0.8215   -0.5752 C   0  0  0  0  0  0  0  0  0  0  0  0
  -24.0235   -2.2400   -0.4104 H   0  0  0  0  0  0  0  0  0  0  0  0
  -24.8353    1.6838   -1.8119 H   0  0  0  0  0  0  0  0  0  0  0  0
  -22.4254    2.1833   -1.7923 H   0  0  0  0  0  0  0  0  0  0  0  0
  -19.9862    2.3494   -1.6754 H   0  0  0  0  0  0  0  0  0  0  0  0
  -17.5739    2.2117   -1.4758 H   0  0  0  0  0  0  0  0  0  0  0  0
  -17.9303   -1.8026   -0.1232 H   0  0  0  0  0  0  0  0  0  0  0  0
  -12.6266    2.1925   -3.2097 N   0  0  0  0  0  0  0  0  0  0  0  0
  -13.2386    1.5561   -2.4638 C   0  0  0  0  0  0  0  0  0  0  0  0
  -14.0022    0.7756   -1.5137 C   0  0  0  0  0  0  0  0  0  0  0  0
  -15.3817    0.8431   -1.5833 C   0  0  0  0  0  0  0  0  0  0  0  0
  -16.1719    0.1401   -0.7050 C   0  0  0  0  0  0  0  0  0  0  0  0
  -15.5725   -0.6375    0.2535 C   0  0  0  0  0  0  0  0  0  0  0  0
  -14.2109   -0.7215    0.3432 C   0  0  0  0  0  0  0  0  0  0  0  0
  -13.4381   -0.0126   -0.5439 C   0  0  0  0  0  0  0  0  0  0  0  0
  -15.8687    1.4541   -2.3369 H   0  0  0  0  0  0  0  0  0  0  0  0
  -16.1488   -1.2170    0.9783 H   0  0  0  0  0  0  0  0  0  0  0  0
  -13.7146   -1.3298    1.0930 H   0  0  0  0  0  0  0  0  0  0  0  0
   -8.8446   -0.7282    2.9470 O   0  0  0  0  0  0  0  0  0  0  0  0
   -8.6905    0.2692    1.8302 S   0  0  0  0  0  0  0  0  0  0  0  0
   -8.6846    1.6840    2.3300 O   0  0  0  0  0  0  0  0  0  0  0  0
   -9.8751    0.0173    0.5724 C   0  0  0  0  0  0  0  0  0  0  0  0
  -11.2345    0.1484    0.6215 C   0  0  0  0  0  0  0  0  0  0  0  0
  -11.9632   -0.1070   -0.5006 C   0  0  0  0  0  0  0  0  0  0  0  0
  -11.3036   -0.4884   -1.6440 C   0  0  0  0  0  0  0  0  0  0  0  0
   -9.9269   -0.6199   -1.6898 C   0  0  0  0  0  0  0  0  0  0  0  0
   -9.1596   -0.3592   -0.5378 C   0  0  0  0  0  0  0  0  0  0  0  0
   -7.7456   -0.4253   -0.3740 C   0  0  0  0  0  0  0  0  0  0  0  0
   -6.7473   -0.7690   -1.3076 C   0  0  0  0  0  0  0  0  0  0  0  0
   -5.4310   -0.7756   -0.9818 C   0  0  0  0  0  0  0  0  0  0  0  0
   -4.9723   -0.4472    0.2831 C   0  0  0  0  0  0  0  0  0  0  0  0
   -5.9218   -0.1093    1.2103 C   0  0  0  0  0  0  0  0  0  0  0  0
   -7.2735   -0.1036    0.8737 C   0  0  0  0  0  0  0  0  0  0  0  0
  -11.7070    0.4488    1.5386 H   0  0  0  0  0  0  0  0  0  0  0  0
  -11.9116   -0.6978   -2.5305 H   0  0  0  0  0  0  0  0  0  0  0  0
   -9.4607   -0.9236   -2.6174 H   0  0  0  0  0  0  0  0  0  0  0  0
   -7.0136   -1.0415   -2.3287 H   0  0  0  0  0  0  0  0  0  0  0  0
   -4.6864   -1.0432   -1.7153 H   0  0  0  0  0  0  0  0  0  0  0  0
   -5.6354    0.1586    2.2171 H   0  0  0  0  0  0  0  0  0  0  0  0
    0.0825   -3.1730   -0.9210 N   0  0  0  0  0  0  0  0  0  0  0  0
   -0.5706   -2.3525   -0.3936 C   0  0  0  0  0  0  0  0  0  0  0  0
   -1.3762   -1.3717    0.2654 C   0  0  0  0  0  0  0  0  0  0  0  0
   -2.7511   -1.3803   -0.0254 C   0  0  0  0  0  0  0  0  0  0  0  0
   -3.5589   -0.4592    0.6091 C   0  0  0  0  0  0  0  0  0  0  0  0
   -3.0596    0.4479    1.5027 C   0  0  0  0  0  0  0  0  0  0  0  0
   -1.6891    0.4321    1.7706 C   0  0  0  0  0  0  0  0  0  0  0  0
   -0.8550   -0.4704    1.1556 C   0  0  0  0  0  0  0  0  0  0  0  0
   -3.1255   -2.0974   -0.7257 H   0  0  0  0  0  0  0  0  0  0  0  0
   -3.7351    1.1431    1.9694 H   0  0  0  0  0  0  0  0  0  0  0  0
   -1.3412    1.1701    2.4853 H   0  0  0  0  0  0  0  0  0  0  0  0
    4.2972   -1.5656   -1.2074 O   0  0  0  0  0  0  0  0  0  0  0  0
    4.2212   -0.3027   -0.3962 S   0  0  0  0  0  0  0  0  0  0  0  0
    4.2037    0.9166   -1.2629 O   0  0  0  0  0  0  0  0  0  0  0  0
    2.8411   -0.3464    0.6949 C   0  0  0  0  0  0  0  0  0  0  0  0
    1.5084   -0.3898    0.4203 C   0  0  0  0  0  0  0  0  0  0  0  0
    0.5693   -0.4252    1.4306 C   0  0  0  0  0  0  0  0  0  0  0  0
    1.0794   -0.4128    2.7139 C   0  0  0  0  0  0  0  0  0  0  0  0
    2.4237   -0.3687    2.9983 C   0  0  0  0  0  0  0  0  0  0  0  0
    3.3745   -0.3329    1.9579 C   0  0  0  0  0  0  0  0  0  0  0  0
    4.8002   -0.2772    2.0310 C   0  0  0  0  0  0  0  0  0  0  0  0
    5.6355   -0.2385    3.1708 C   0  0  0  0  0  0  0  0  0  0  0  0
    6.9870   -0.1743    3.0511 C   0  0  0  0  0  0  0  0  0  0  0  0
    7.6037   -0.1441    1.8221 C   0  0  0  0  0  0  0  0  0  0  0  0
    6.7995   -0.1818    0.7026 C   0  0  0  0  0  0  0  0  0  0  0  0
    5.4527   -0.2456    0.8315 C   0  0  0  0  0  0  0  0  0  0  0  0
    1.1919   -0.3859   -0.6083 H   0  0  0  0  0  0  0  0  0  0  0  0
    0.3694   -0.4399    3.5484 H   0  0  0  0  0  0  0  0  0  0  0  0
    2.7543   -0.3615    4.0368 H   0  0  0  0  0  0  0  0  0  0  0  0
    5.2256   -0.2584    4.1722 H   0  0  0  0  0  0  0  0  0  0  0  0
    7.5993   -0.1456    3.9475 H   0  0  0  0  0  0  0  0  0  0  0  0
    7.2587   -0.1595   -0.2778 H   0  0  0  0  0  0  0  0  0  0  0  0
   12.6988    1.9807    4.0895 N   0  0  0  0  0  0  0  0  0  0  0  0
   12.0837    1.3849    3.3317 C   0  0  0  0  0  0  0  0  0  0  0  0
   11.2843    0.6487    2.3586 C   0  0  0  0  0  0  0  0  0  0  0  0
    9.8984    0.5876    2.5439 C   0  0  0  0  0  0  0  0  0  0  0  0
    9.0696   -0.0646    1.6721 C   0  0  0  0  0  0  0  0  0  0  0  0
    9.6612   -0.6715    0.5842 C   0  0  0  0  0  0  0  0  0  0  0  0
   11.0222   -0.6287    0.3753 C   0  0  0  0  0  0  0  0  0  0  0  0
   11.8389    0.0381    1.2721 C   0  0  0  0  0  0  0  0  0  0  0  0
    9.4545    1.0723    3.4083 H   0  0  0  0  0  0  0  0  0  0  0  0
    9.0541   -1.2030   -0.1392 H   0  0  0  0  0  0  0  0  0  0  0  0
   11.4477   -1.1125   -0.4798 H   0  0  0  0  0  0  0  0  0  0  0  0
   15.6597   -0.1150   -2.9892 O   0  0  0  0  0  0  0  0  0  0  0  0
   16.0018    0.8706   -1.9069 S   0  0  0  0  0  0  0  0  0  0  0  0
   15.7804    2.2823   -2.3162 O   0  0  0  0  0  0  0  0  0  0  0  0
   15.0978    0.4566   -0.4458 C   0  0  0  0  0  0  0  0  0  0  0  0
   13.7367    0.4400   -0.2029 C   0  0  0  0  0  0  0  0  0  0  0  0
   13.2777    0.0705    1.0376 C   0  0  0  0  0  0  0  0  0  0  0  0
   14.1857   -0.2732    2.0046 C   0  0  0  0  0  0  0  0  0  0  0  0
   15.5258   -0.2463    1.7337 C   0  0  0  0  0  0  0  0  0  0  0  0
   16.0453    0.1237    0.4828 C   0  0  0  0  0  0  0  0  0  0  0  0
   17.4048    0.1967    0.0405 C   0  0  0  0  0  0  0  0  0  0  0  0
   18.5858   -0.0805    0.7431 C   0  0  0  0  0  0  0  0  0  0  0  0
   19.8092    0.0356    0.1710 C   0  0  0  0  0  0  0  0  0  0  0  0
   19.9914    0.4310   -1.1338 C   0  0  0  0  0  0  0  0  0  0  0  0
   18.8189    0.7052   -1.8283 C   0  0  0  0  0  0  0  0  0  0  0  0
   17.5839    0.5874   -1.2482 C   0  0  0  0  0  0  0  0  0  0  0  0
   13.0860    0.7230   -1.0135 H   0  0  0  0  0  0  0  0  0  0  0  0
   13.8374   -0.5865    3.0136 H   0  0  0  0  0  0  0  0  0  0  0  0
   16.2257   -0.5282    2.5383 H   0  0  0  0  0  0  0  0  0  0  0  0
   18.5712   -0.4035    1.7899 H   0  0  0  0  0  0  0  0  0  0  0  0
   20.7262   -0.1847    0.7341 H   0  0  0  0  0  0  0  0  0  0  0  0
   18.9451    1.0205   -2.8652 H   0  0  0  0  0  0  0  0  0  0  0  0
   25.7520    1.7439   -0.1939 N   0  0  0  0  0  0  0  0  0  0  0  0
   24.8101    1.4501   -0.7972 C   0  0  0  0  0  0  0  0  0  0  0  0
   23.6514    1.0623   -1.5494 C   0  0  0  0  0  0  0  0  0  0  0  0
   22.3900    0.9301   -1.0027 C   0  0  0  0  0  0  0  0  0  0  0  0
   21.2977    0.5570   -1.7503 C   0  0  0  0  0  0  0  0  0  0  0  0
   21.4873    0.3097   -3.0922 C   0  0  0  0  0  0  0  0  0  0  0  0
   22.7494    0.4353   -3.6708 C   0  0  0  0  0  0  0  0  0  0  0  0
   23.8306    0.8122   -2.8956 C   0  0  0  0  0  0  0  0  0  0  0  0
   22.2832    1.1302    0.0423 H   0  0  0  0  0  0  0  0  0  0  0  0
   20.6174    0.0154   -3.6699 H   0  0  0  0  0  0  0  0  0  0  0  0
   22.8855    0.2382   -4.7245 H   0  0  0  0  0  0  0  0  0  0  0  0
  -25.6414   -0.5091   -1.1281 H   0  0  0  0  0  0  0  0  0  0  0  0
   24.8051    0.9078   -3.3518 H   0  0  0  0  0  0  0  0  0  0  0  0
  1  2  2  0
  2  3  2  0
  2  4  1  0
  4  5  2  0
  5  6  1  0
  6  7  2  0
  7  8  1  0
  8  9  2  0
  9 10  1  0
 10 11  2  0
 11 12  1  0
 12 13  2  0
 13 14  1  0
 14 15  2  0
 15  2  1  0
  9  4  1  0
 15 10  1  0
  5 16  1  0
  7 17  1  0
  8 18  1  0
 11 19  1  0
 12 20  1  0
 14 21  1  0
 22 23  3  0
 23 24  1  0
 24 25  2  0
 25 26  1  0
 26 27  2  0
 27 28  1  0
 28 29  2  0
 29 24  1  0
 25 30  1  0
 27 31  1  0
 28 32  1  0
 33 34  2  0
 34 35  2  0
 34 36  1  0
 36 37  2  0
 37 38  1  0
 38 39  2  0
 39 40  1  0
 40 41  2  0
 41 42  1  0
 42 43  2  0
 43 44  1  0
 44 45  2  0
 45 46  1  0
 46 47  2  0
 47 34  1  0
 41 36  1  0
 47 42  1  0
 37 48  1  0
 39 49  1  0
 40 50  1  0
 43 51  1  0
 44 52  1  0
 46 53  1  0
 54 55  3  0
 55 56  1  0
 56 57  2  0
 57 58  1  0
 58 59  2  0
 59 60  1  0
 60 61  2  0
 61 56  1  0
 57 62  1  0
 59 63  1  0
 60 64  1  0
 65 66  2  0
 66 67  2  0
 66 68  1  0
 68 69  2  0
 69 70  1  0
 70 71  2  0
 71 72  1  0
 72 73  2  0
 73 74  1  0
 74 75  2  0
 75 76  1  0
 76 77  2  0
 77 78  1  0
 78 79  2  0
 79 66  1  0
 73 68  1  0
 79 74  1  0
 69 80  1  0
 71 81  1  0
 72 82  1  0
 75 83  1  0
 76 84  1  0
 78 85  1  0
 86 87  3  0
 87 88  1  0
 88 89  2  0
 89 90  1  0
 90 91  2  0
 91 92  1  0
 92 93  2  0
 93 88  1  0
 89 94  1  0
 91 95  1  0
 92 96  1  0
 97 98  2  0
 98 99  2  0
 98100  1  0
100101  2  0
101102  1  0
102103  2  0
103104  1  0
104105  2  0
105106  1  0
106107  2  0
107108  1  0
108109  2  0
109110  1  0
110111  2  0
111 98  1  0
105100  1  0
111106  1  0
101112  1  0
103113  1  0
104114  1  0
107115  1  0
108116  1  0
110117  1  0
118119  3  0
119120  1  0
120121  2  0
121122  1  0
122123  2  0
123124  1  0
124125  2  0
125120  1  0
121126  1  0
123127  1  0
124128  1  0
 13 26  1  0
 29 38  1  0
 45 58  1  0
 61 70  1  0
 77 90  1  0
 93102  1  0
109122  1  0
  6129  1  0
125130  1  0
M  END
