182

O        -26.02180        0.28400       -1.43340
S        -25.72960       -0.63960       -0.27080
O        -25.75600        0.07660        1.04570
C        -26.78750       -2.02410       -0.28270
C        -28.15230       -2.09680       -0.15840
C        -28.75760       -3.33540       -0.19290
C        -27.97940       -4.46430       -0.35000
C        -26.62970       -4.35350       -0.47170
C        -25.96020       -3.11510       -0.44380
C        -24.57690       -2.82740       -0.57880
C        -23.49560       -3.70930       -0.79950
C        -22.22900       -3.25000       -0.95060
C        -21.91850       -1.91420       -0.89630
C        -22.96140       -1.01400       -0.67770
C        -24.23000       -1.50540       -0.53140
H        -28.70320       -1.17820       -0.04450
H        -28.49840       -5.41870       -0.36840
H        -26.06400       -5.28150       -0.57520
H        -23.66410       -4.77870       -0.85480
H        -21.40990       -3.97090       -1.14260
H        -22.73110        0.03590       -0.62990
C        -20.56820       -1.44830       -1.13690
C        -20.45150       -0.52780       -2.19260
C        -19.21780       -0.07470       -2.55020
C        -18.07610       -0.50860       -1.88870
C        -16.82420       -0.03740       -2.29380
C        -15.68050       -0.48070       -1.64590
C        -15.75030       -1.36680       -0.62510
C        -14.58000       -1.79100        0.01170
C        -14.71140       -2.67340        1.04980
C        -15.96380       -3.13090        1.45340
C        -17.11300       -2.70160        0.80450
C        -18.36630       -3.15920        1.18300
C        -19.50770       -2.74290        0.53780
C        -19.44160       -1.85580       -0.50320
C        -18.17770       -1.40360       -0.85690
C        -17.01030       -1.80490       -0.25620
H        -21.35530       -0.18480       -2.72310
H        -19.06910        0.63210       -3.35140
H        -16.74740        0.68150       -3.09970
H        -14.74920       -0.05730       -1.98590
H        -13.79610       -3.01060        1.55230
H        -16.04160       -3.80810        2.27050
H        -18.42410       -3.85270        2.01620
H        -20.46400       -3.09760        0.87490
C        -13.26560       -1.43930       -0.50430
C        -12.99500       -1.77780       -1.85200
C        -11.77430       -1.50580       -2.42070
C        -10.76740       -0.89950       -1.72190
C         -9.56650       -0.63130       -2.34410
C         -8.53930        0.00050       -1.66260
C         -8.74680        0.35940       -0.33400
C         -7.76220        0.97480        0.34830
C         -7.99290        1.32670        1.68720
C         -9.20800        1.03870        2.26180
C        -10.21090        0.41440        1.57080
C        -11.44030        0.14430        2.18180
C        -12.47130       -0.48230        1.49180
C        -12.24410       -0.83390        0.17920
C        -11.01040       -0.56170       -0.40960
C         -9.99310        0.06540        0.26460
H        -13.76720       -2.26480       -2.41610
H        -11.59120       -1.77560       -3.47490
H         -9.35910       -0.89530       -3.37430
H         -7.60700        0.21230       -2.15770
H         -7.24270        1.82330        2.28080
H         -9.41800        1.31850        3.31310
H        -11.58330        0.42480        3.21330
H        -13.39900       -0.66500        1.99390
O         -3.92680        5.14400        1.02400
S         -3.97440        4.58300       -0.37500
O         -4.48120        5.54920       -1.37340
C         -4.75470        3.02000       -0.42280
C         -6.00520        2.65700       -0.04550
C         -6.46260        1.31710       -0.15660
C         -5.56140        0.44280       -0.66940
C         -4.31070        0.81980       -1.04510
C         -3.84680        2.13950       -0.93300
C         -2.52770        2.67220       -1.13800
C         -1.34670        1.97990       -1.48300
C         -0.13830        2.60200       -1.46000
C          0.00790        3.94780       -1.09710
C         -1.11110        4.63520       -0.77140
C         -2.35680        3.98290       -0.79680
H         -6.73510        3.35730        0.36610
H         -5.84980       -0.59850       -0.77300
H         -3.65840        0.02940       -1.45990
H         -1.41630        0.92700       -1.77670
H          0.77270        2.06770       -1.73110
H         -1.05560        5.68300       -0.50390
O          5.67080        4.52720       -2.98840
S          5.29030        3.74530       -1.75710
O          5.41320        2.28330       -1.92260
C          3.73870        4.24800       -1.11500
C          2.42790        3.90400       -1.52070
C          1.37480        4.45370       -0.85720
C          1.62880        5.33610        0.17630
C          2.90380        5.66400        0.56060
C          4.02000        5.10170       -0.09380
C          5.41250        5.13000        0.32670
C          5.97480        5.74280        1.47980
C          7.27850        5.46490        1.82510
C          8.10030        4.62650        1.13200
C          7.54970        4.02580       -0.01040
C          6.24720        4.30170       -0.36020
H          2.32780        3.21700       -2.33250
H          0.75350        5.75730        0.65410
H          3.06640        6.37260        1.37860
H          5.37710        6.42130        2.07620
H          7.71490        5.95350        2.71860
H          8.14200        3.37430       -0.60940
C          9.47140        4.27200        1.52580
C         10.51660        5.14900        1.48290
C         11.82370        4.76560        1.74860
C         12.12040        3.46140        2.06770
C         13.41550        3.10900        2.28410
C         13.74200        1.80430        2.56740
C         12.71370        0.85430        2.63010
C         13.01390       -0.46020        2.89610
C         11.99290       -1.39660        2.95770
C         10.68270       -1.00060        2.74530
C         10.37630        0.31590        2.47030
C          9.07880        0.70480        2.22220
C          8.73340        2.03160        1.90430
C          9.76560        2.93990        1.85740
C         11.07820        2.53610        2.12600
C         11.40390        1.24740        2.41030
H         10.31210        6.18900        1.23640
H         12.65190        5.48810        1.70190
H         14.24860        3.81580        2.24110
H         14.78160        1.52280        2.75320
H         12.24160       -2.41940        3.17210
H          9.90590       -1.76370        2.80740
H          8.25780        0.00360        2.26430
H          7.70670        2.28950        1.73840
C         14.42270       -0.82730        2.95750
C         15.14740       -1.04860        4.09330
C         16.49550       -1.34760        4.03020
C         17.16820       -1.43290        2.84390
C         18.53710       -1.71120        2.77860
C         19.23900       -1.77860        1.59530
C         18.54220       -1.56060        0.43220
C         19.22520       -1.60620       -0.75470
C         18.49670       -1.36950       -1.92620
C         17.14740       -1.09940       -1.87650
C         16.46690       -1.05180       -0.67880
C         15.11350       -0.76270       -0.64310
C         14.43660       -0.69510        0.55780
C         15.11780       -0.91920        1.73390
C         16.46450       -1.21340        1.67080
C         17.17140       -1.28130        0.47830
H         14.62510       -0.97230        5.04230
H         17.00250       -1.51600        4.95900
H         19.07970       -1.89220        3.71110
H         20.30100       -1.99090        1.57660
H         19.00300       -1.40330       -2.86990
H         16.55320       -0.90900       -2.78920
H         14.57510       -0.59160       -1.58740
H         13.37020       -0.50040        0.58700
O         22.87460       -6.05730       -1.25150
S         23.42580       -4.87880       -0.50570
O         23.55990       -5.16510        0.95870
C         22.49330       -3.43910       -0.81940
C         21.16940       -3.15480       -0.59270
C         20.62410       -1.93940       -0.93390
C         21.50530       -1.03790       -1.51170
C         22.80910       -1.31090       -1.73430
C         23.36940       -2.55380       -1.39140
C         24.69950       -3.01930       -1.58350
C         25.81890       -2.38080       -2.15100
C         27.02090       -3.00690       -2.26650
C         27.21090       -4.30090       -1.83890
C         26.15060       -4.95420       -1.28250
C         24.94100       -4.30770       -1.16990
H         20.51680       -3.89940       -0.15120
H         21.06880       -0.06250       -1.77660
H         23.41660       -0.54230       -2.18060
H         25.74850       -1.35690       -2.50850
H         27.87500       -2.50240       -2.69630
H         26.26300       -5.96450       -0.92980
H        -29.83910       -3.40760       -0.09950
H         28.16530       -4.83020       -1.91600
