110

C         17.68190       -1.39410       -1.90240
C         17.18950       -2.66000       -2.12800
C         15.86120       -2.97040       -1.93240
C         14.96690       -2.01500       -1.49910
C         13.64140       -2.32580       -1.30280
C         12.76720       -1.35370       -0.86700
C         13.21160       -0.09010       -0.63040
C         12.31810        0.86670       -0.19880
C         12.83290        2.15420        0.01950
C         14.14720        2.45990       -0.17850
C         15.04780        1.49960       -0.61020
C         16.38620        1.84130       -0.80300
C         17.23430        0.85260       -1.23200
C         16.78490       -0.42880       -1.46610
C         15.44970       -0.73600       -1.26800
C         14.56470        0.21950       -0.83390
H         17.84660       -3.43900       -2.46550
H         15.46240       -3.96650       -2.10710
H         13.27500       -3.32910       -1.48730
H         11.70570       -1.60470       -0.72950
H         12.12320        2.92420        0.36280
H         14.53220        3.46540       -0.00560
H         16.69610        2.86020       -0.60880
H         18.29020        1.09150       -1.38930
N          8.26420       -2.33580        2.86640
C          8.61130       -1.49680        2.13210
C          9.06110       -0.47990        1.21270
C         10.43130       -0.31170        0.97380
C         10.90180        0.62540        0.09410
C          9.94650        1.41100       -0.55940
C          8.60350        1.24880       -0.32690
C          8.12920        0.28930        0.57480
H         11.13770       -0.93120        1.49340
H         10.30590        2.15970       -1.26140
H          7.85790        1.85910       -0.83440
N          4.11240       -0.03290        4.88830
C          4.40210        0.03950        3.76480
C          4.79600        0.09430        2.36020
C          6.17580        0.19460        2.08670
C          6.68800        0.17060        0.81890
C          5.79330        0.04100       -0.21990
C          4.44990       -0.05560        0.02580
C          3.91860       -0.02800        1.33790
H          6.83800        0.30740        2.94050
H          6.18900        0.01790       -1.23630
H          3.72780       -0.15920       -0.78120
C          2.47780       -0.16020        1.49630
C          1.71300        0.45850        2.43700
N          0.36530        0.37600        2.47680
C         -0.31700       -0.35640        1.54050
C          0.46590       -0.96800        0.60930
N          1.79400       -0.89090        0.56470
H          2.18090        1.09480        3.17090
H         -0.03460       -1.60190       -0.14040
C         -1.76770       -0.46720        1.69160
C         -2.26660       -0.72260        2.98370
C         -3.60980       -0.76930        3.15300
C         -4.50210       -0.57560        2.10930
C         -5.86190       -0.62200        2.36910
C         -6.77040       -0.41270        1.35330
C         -6.29660       -0.15650        0.07140
C         -7.15180        0.08570       -0.97800
C         -6.66720        0.37030       -2.26830
C         -5.34000        0.41900       -2.53470
C         -4.46600        0.17340       -1.47070
C         -3.11530        0.23210       -1.67050
C         -2.24220        0.01260       -0.62110
C         -2.65060       -0.27200        0.65160
C         -4.03720       -0.32330        0.84190
C         -4.91590       -0.10840       -0.19940
H         -1.53940       -0.86890        3.77410
H         -4.02370       -0.96820        4.15310
H         -6.22020       -0.82390        3.37480
H         -7.84160       -0.43200        1.54840
H         -7.36270        0.56070       -3.09280
H         -4.91190        0.63300       -3.50440
H         -2.76870        0.45490       -2.67130
H         -1.19710        0.12110       -0.84980
N        -11.98200        3.35950       -1.85420
C        -11.41580        2.40730       -1.51280
C        -10.69770        1.23550       -1.11500
C         -9.30190        1.18480       -1.19160
C         -8.59240        0.06450       -0.83680
C         -9.26580       -1.03120       -0.39820
C        -10.66020       -0.98990       -0.31770
C        -11.39210        0.12390       -0.66730
H         -8.80350        2.07540       -1.54550
H         -8.77880       -1.96000       -0.09870
H        -11.16640       -1.86830        0.03180
N        -16.42340       -2.63230       -2.13140
C        -15.82750       -1.76310       -1.60030
C        -15.06790       -0.72670       -0.97150
C        -13.67190       -0.77960       -1.10540
C        -12.84500        0.16090       -0.54590
C        -13.45800        1.16800        0.16090
C        -14.85400        1.22290        0.29590
C        -15.68330        0.27630       -0.26850
H        -13.20440       -1.58540       -1.66760
H        -12.87480        1.94050        0.64450
H        -15.26120        2.04650        0.86920
C        -17.14550        0.36250       -0.12450
C        -17.71840        1.42520        0.53550
N        -19.05910        1.53150        0.67300
C        -19.83710        0.58320        0.15590
C        -19.28220       -0.49020       -0.50940
N        -17.95310       -0.58480       -0.63920
H        -17.11780        2.22360        0.97130
H        -19.94420       -1.25930       -0.92740
H         18.72320       -1.15650       -2.05700
H        -20.91430        0.71080        0.29080
