
     RDKit          3D

110123  0  0  0  0  0  0  0  0999 V2000
  -15.8857    3.2643    1.3338 N   0  0  0  0  0  0  0  0  0  0  0  0
  -16.2889    2.3424    0.7457 C   0  0  0  0  0  0  0  0  0  0  0  0
  -16.7573    1.1994    0.0219 C   0  0  0  0  0  0  0  0  0  0  0  0
  -18.1222    1.0112   -0.0879 C   0  0  0  0  0  0  0  0  0  0  0  0
  -18.6277   -0.0827   -0.7616 C   0  0  0  0  0  0  0  0  0  0  0  0
  -17.7408   -1.0108   -1.3385 C   0  0  0  0  0  0  0  0  0  0  0  0
  -16.3946   -0.7938   -1.2130 C   0  0  0  0  0  0  0  0  0  0  0  0
  -15.8619    0.2850   -0.5491 C   0  0  0  0  0  0  0  0  0  0  0  0
  -18.8512    1.7100    0.3479 H   0  0  0  0  0  0  0  0  0  0  0  0
  -18.1498   -1.8591   -1.8554 H   0  0  0  0  0  0  0  0  0  0  0  0
  -15.7010   -1.5154   -1.6672 H   0  0  0  0  0  0  0  0  0  0  0  0
  -14.4303    0.5857   -0.4651 C   0  0  0  0  0  0  0  0  0  0  0  0
  -14.0142    1.8285   -0.9834 C   0  0  0  0  0  0  0  0  0  0  0  0
  -12.6859    2.1103   -0.9702 C   0  0  0  0  0  0  0  0  0  0  0  0
  -11.7320    1.2470   -0.4793 C   0  0  0  0  0  0  0  0  0  0  0  0
  -10.3906    1.5803   -0.4986 C   0  0  0  0  0  0  0  0  0  0  0  0
   -9.4154    0.7341   -0.0186 C   0  0  0  0  0  0  0  0  0  0  0  0
   -9.8040   -0.4808    0.4983 C   0  0  0  0  0  0  0  0  0  0  0  0
   -8.8786   -1.3617    0.9705 C   0  0  0  0  0  0  0  0  0  0  0  0
   -9.3321   -2.5969    1.4591 C   0  0  0  0  0  0  0  0  0  0  0  0
  -10.6466   -2.9241    1.4739 C   0  0  0  0  0  0  0  0  0  0  0  0
  -11.5788   -2.0479    1.0064 C   0  0  0  0  0  0  0  0  0  0  0  0
  -12.9315   -2.3733    1.0087 C   0  0  0  0  0  0  0  0  0  0  0  0
  -13.8885   -1.5173    0.5338 C   0  0  0  0  0  0  0  0  0  0  0  0
  -13.5029   -0.3047    0.0376 C   0  0  0  0  0  0  0  0  0  0  0  0
  -12.1386    0.0342    0.0283 C   0  0  0  0  0  0  0  0  0  0  0  0
  -11.1635   -0.8262    0.5176 C   0  0  0  0  0  0  0  0  0  0  0  0
  -14.7616    2.5283   -1.3882 H   0  0  0  0  0  0  0  0  0  0  0  0
  -12.3576    3.0758   -1.3696 H   0  0  0  0  0  0  0  0  0  0  0  0
  -10.1167    2.5371   -0.9063 H   0  0  0  0  0  0  0  0  0  0  0  0
   -8.3936    1.0477   -0.1173 H   0  0  0  0  0  0  0  0  0  0  0  0
   -8.5594   -3.2934    1.8296 H   0  0  0  0  0  0  0  0  0  0  0  0
  -10.9868   -3.8974    1.8602 H   0  0  0  0  0  0  0  0  0  0  0  0
  -13.2384   -3.3289    1.3962 H   0  0  0  0  0  0  0  0  0  0  0  0
  -14.9247   -1.7861    0.5667 H   0  0  0  0  0  0  0  0  0  0  0  0
   -7.4176   -1.1422    0.9841 C   0  0  0  0  0  0  0  0  0  0  0  0
   -6.7643   -0.0199    1.3697 C   0  0  0  0  0  0  0  0  0  0  0  0
   -5.3989    0.0295    1.3958 N   0  0  0  0  0  0  0  0  0  0  0  0
   -4.6330   -1.0166    1.0493 C   0  0  0  0  0  0  0  0  0  0  0  0
   -5.2889   -2.1820    0.6550 C   0  0  0  0  0  0  0  0  0  0  0  0
   -6.6305   -2.2049    0.6348 N   0  0  0  0  0  0  0  0  0  0  0  0
   -7.3103    0.8473    1.7089 H   0  0  0  0  0  0  0  0  0  0  0  0
   -4.6751   -3.0166    0.3791 H   0  0  0  0  0  0  0  0  0  0  0  0
    0.6260   -3.8008    0.4013 N   0  0  0  0  0  0  0  0  0  0  0  0
   -0.0724   -2.8572    0.5335 C   0  0  0  0  0  0  0  0  0  0  0  0
   -0.9301   -1.7233    0.7259 C   0  0  0  0  0  0  0  0  0  0  0  0
   -2.3186   -1.8969    0.8072 C   0  0  0  0  0  0  0  0  0  0  0  0
   -3.1852   -0.8794    1.0275 C   0  0  0  0  0  0  0  0  0  0  0  0
   -2.6370    0.3954    1.1772 C   0  0  0  0  0  0  0  0  0  0  0  0
   -1.2855    0.5829    1.0977 C   0  0  0  0  0  0  0  0  0  0  0  0
   -0.3856   -0.4713    0.8672 C   0  0  0  0  0  0  0  0  0  0  0  0
   -2.6628   -2.9188    0.6770 H   0  0  0  0  0  0  0  0  0  0  0  0
   -3.2883    1.2338    1.3597 H   0  0  0  0  0  0  0  0  0  0  0  0
   -0.8608    1.5474    1.2129 H   0  0  0  0  0  0  0  0  0  0  0  0
    4.0854    2.6228    3.2595 N   0  0  0  0  0  0  0  0  0  0  0  0
    3.5946    1.9367    2.4945 C   0  0  0  0  0  0  0  0  0  0  0  0
    2.9939    1.0439    1.5354 C   0  0  0  0  0  0  0  0  0  0  0  0
    1.6628    0.6824    1.6294 C   0  0  0  0  0  0  0  0  0  0  0  0
    1.0379   -0.1791    0.7400 C   0  0  0  0  0  0  0  0  0  0  0  0
    1.8309   -0.6744   -0.2658 C   0  0  0  0  0  0  0  0  0  0  0  0
    3.1663   -0.3296   -0.3789 C   0  0  0  0  0  0  0  0  0  0  0  0
    3.7831    0.5476    0.5270 C   0  0  0  0  0  0  0  0  0  0  0  0
    1.0216    1.0687    2.4414 H   0  0  0  0  0  0  0  0  0  0  0  0
    1.4245   -1.3393   -1.0259 H   0  0  0  0  0  0  0  0  0  0  0  0
    3.7765   -0.7285   -1.1815 H   0  0  0  0  0  0  0  0  0  0  0  0
    5.1628    0.9698    0.2633 C   0  0  0  0  0  0  0  0  0  0  0  0
    5.3371    2.2177   -0.3610 C   0  0  0  0  0  0  0  0  0  0  0  0
    6.5703    2.6722   -0.7517 C   0  0  0  0  0  0  0  0  0  0  0  0
    7.6805    1.8992   -0.5312 C   0  0  0  0  0  0  0  0  0  0  0  0
    8.9304    2.3600   -0.9106 C   0  0  0  0  0  0  0  0  0  0  0  0
   10.0832    1.6256   -0.6956 C   0  0  0  0  0  0  0  0  0  0  0  0
    9.9499    0.3854   -0.0759 C   0  0  0  0  0  0  0  0  0  0  0  0
   11.0699   -0.3485    0.1886 C   0  0  0  0  0  0  0  0  0  0  0  0
   10.8655   -1.5751    0.8648 C   0  0  0  0  0  0  0  0  0  0  0  0
    9.6192   -2.0174    1.2362 C   0  0  0  0  0  0  0  0  0  0  0  0
    8.4953   -1.2690    0.9598 C   0  0  0  0  0  0  0  0  0  0  0  0
    7.2545   -1.7380    1.3654 C   0  0  0  0  0  0  0  0  0  0  0  0
    6.1123   -1.0101    1.1313 C   0  0  0  0  0  0  0  0  0  0  0  0
    6.2784    0.2181    0.4718 C   0  0  0  0  0  0  0  0  0  0  0  0
    7.5357    0.6670    0.0841 C   0  0  0  0  0  0  0  0  0  0  0  0
    8.6801   -0.0696    0.3032 C   0  0  0  0  0  0  0  0  0  0  0  0
    4.4670    2.8290   -0.5368 H   0  0  0  0  0  0  0  0  0  0  0  0
    6.7230    3.6441   -1.2468 H   0  0  0  0  0  0  0  0  0  0  0  0
    9.0253    3.3234   -1.3975 H   0  0  0  0  0  0  0  0  0  0  0  0
   11.0490    2.0036   -0.9783 H   0  0  0  0  0  0  0  0  0  0  0  0
   11.7595   -2.1508    1.0749 H   0  0  0  0  0  0  0  0  0  0  0  0
    9.4709   -2.9606    1.7512 H   0  0  0  0  0  0  0  0  0  0  0  0
    7.1720   -2.7070    1.8798 H   0  0  0  0  0  0  0  0  0  0  0  0
    5.1274   -1.3340    1.4203 H   0  0  0  0  0  0  0  0  0  0  0  0
   12.4360    0.0342   -0.1385 C   0  0  0  0  0  0  0  0  0  0  0  0
   12.8790    0.3222   -1.4272 C   0  0  0  0  0  0  0  0  0  0  0  0
   14.1698    0.5411   -1.7306 N   0  0  0  0  0  0  0  0  0  0  0  0
   15.1397    0.4899   -0.7567 C   0  0  0  0  0  0  0  0  0  0  0  0
   14.7106    0.2103    0.5095 C   0  0  0  0  0  0  0  0  0  0  0  0
   13.4134   -0.0085    0.8038 N   0  0  0  0  0  0  0  0  0  0  0  0
   12.1140    0.3518   -2.2127 H   0  0  0  0  0  0  0  0  0  0  0  0
   15.4714    0.1656    1.3118 H   0  0  0  0  0  0  0  0  0  0  0  0
   20.8144    1.0995    1.0949 N   0  0  0  0  0  0  0  0  0  0  0  0
   19.9354    1.0248    0.3163 C   0  0  0  0  0  0  0  0  0  0  0  0
   18.8588    0.9072   -0.6377 C   0  0  0  0  0  0  0  0  0  0  0  0
   17.5244    0.7784   -0.2215 C   0  0  0  0  0  0  0  0  0  0  0  0
   16.5277    0.6777   -1.1614 C   0  0  0  0  0  0  0  0  0  0  0  0
   16.8801    0.7091   -2.4933 C   0  0  0  0  0  0  0  0  0  0  0  0
   18.1853    0.8347   -2.9331 C   0  0  0  0  0  0  0  0  0  0  0  0
   19.1805    0.9337   -1.9888 C   0  0  0  0  0  0  0  0  0  0  0  0
   17.2925    0.7611    0.8228 H   0  0  0  0  0  0  0  0  0  0  0  0
   16.1150    0.6284   -3.2512 H   0  0  0  0  0  0  0  0  0  0  0  0
   18.4260    0.8485   -4.0077 H   0  0  0  0  0  0  0  0  0  0  0  0
  -19.6883   -0.2500   -0.8606 H   0  0  0  0  0  0  0  0  0  0  0  0
   20.1895    1.0271   -2.3708 H   0  0  0  0  0  0  0  0  0  0  0  0
  1  2  3  0
  2  3  1  0
  3  4  2  0
  4  5  1  0
  5  6  2  0
  6  7  1  0
  7  8  2  0
  8  3  1  0
  4  9  1  0
  6 10  1  0
  7 11  1  0
 12 13  2  0
 13 14  1  0
 14 15  2  0
 15 16  1  0
 16 17  2  0
 17 18  1  0
 18 19  2  0
 19 20  1  0
 20 21  2  0
 21 22  1  0
 22 23  2  0
 23 24  1  0
 24 25  2  0
 25 26  1  0
 26 27  2  0
 25 12  1  0
 26 15  1  0
 27 18  1  0
 27 22  1  0
 13 28  1  0
 14 29  1  0
 16 30  1  0
 17 31  1  0
 20 32  1  0
 21 33  1  0
 23 34  1  0
 24 35  1  0
 36 37  2  0
 37 38  1  0
 38 39  2  0
 39 40  1  0
 40 41  2  0
 41 36  1  0
 37 42  1  0
 40 43  1  0
 44 45  3  0
 45 46  1  0
 46 47  2  0
 47 48  1  0
 48 49  2  0
 49 50  1  0
 50 51  2  0
 51 46  1  0
 47 52  1  0
 49 53  1  0
 50 54  1  0
 55 56  3  0
 56 57  1  0
 57 58  2  0
 58 59  1  0
 59 60  2  0
 60 61  1  0
 61 62  2  0
 62 57  1  0
 58 63  1  0
 60 64  1  0
 61 65  1  0
 66 67  2  0
 67 68  1  0
 68 69  2  0
 69 70  1  0
 70 71  2  0
 71 72  1  0
 72 73  2  0
 73 74  1  0
 74 75  2  0
 75 76  1  0
 76 77  2  0
 77 78  1  0
 78 79  2  0
 79 80  1  0
 80 81  2  0
 79 66  1  0
 80 69  1  0
 81 72  1  0
 81 76  1  0
 67 82  1  0
 68 83  1  0
 70 84  1  0
 71 85  1  0
 74 86  1  0
 75 87  1  0
 77 88  1  0
 78 89  1  0
 90 91  2  0
 91 92  1  0
 92 93  2  0
 93 94  1  0
 94 95  2  0
 95 90  1  0
 91 96  1  0
 94 97  1  0
 98 99  3  0
 99100  1  0
100101  2  0
101102  1  0
102103  2  0
103104  1  0
104105  2  0
105100  1  0
101106  1  0
103107  1  0
104108  1  0
  8 12  1  0
 19 36  1  0
 39 48  1  0
 51 59  1  0
 62 66  1  0
 73 90  1  0
 93102  1  0
  5109  1  0
105110  1  0
M  END
