
     RDKit          3D

150171  0  0  0  0  0  0  0  0999 V2000
  -23.8088   -3.1518   -0.6006 O   0  0  0  0  0  0  0  0  0  0  0  0
  -23.7187   -2.0394   -1.6082 S   0  0  0  0  0  0  0  0  0  0  0  0
  -23.1568   -2.5039   -2.9108 O   0  0  0  0  0  0  0  0  0  0  0  0
  -25.2306   -1.1887   -1.7806 C   0  0  0  0  0  0  0  0  0  0  0  0
  -26.4649   -1.6137   -2.2388 C   0  0  0  0  0  0  0  0  0  0  0  0
  -27.5399   -0.7468   -2.2862 C   0  0  0  0  0  0  0  0  0  0  0  0
  -27.3428    0.5477   -1.8613 C   0  0  0  0  0  0  0  0  0  0  0  0
  -26.1115    0.9469   -1.4099 C   0  0  0  0  0  0  0  0  0  0  0  0
  -24.9968    0.0903   -1.3522 C   0  0  0  0  0  0  0  0  0  0  0  0
  -23.6646    0.3750   -0.9083 C   0  0  0  0  0  0  0  0  0  0  0  0
  -23.1319    1.5819   -0.4205 C   0  0  0  0  0  0  0  0  0  0  0  0
  -21.8153    1.6713   -0.0351 C   0  0  0  0  0  0  0  0  0  0  0  0
  -20.9600    0.5993   -0.1070 C   0  0  0  0  0  0  0  0  0  0  0  0
  -21.4626   -0.5852   -0.5841 C   0  0  0  0  0  0  0  0  0  0  0  0
  -22.7917   -0.6778   -0.9720 C   0  0  0  0  0  0  0  0  0  0  0  0
  -26.5606   -2.6261   -2.5739 H   0  0  0  0  0  0  0  0  0  0  0  0
  -28.1878    1.2580   -1.8785 H   0  0  0  0  0  0  0  0  0  0  0  0
  -26.0245    1.9875   -1.0880 H   0  0  0  0  0  0  0  0  0  0  0  0
  -23.7546    2.4641   -0.3297 H   0  0  0  0  0  0  0  0  0  0  0  0
  -21.4234    2.6161    0.3350 H   0  0  0  0  0  0  0  0  0  0  0  0
  -20.8683   -1.4705   -0.6659 H   0  0  0  0  0  0  0  0  0  0  0  0
  -15.9317   -2.2770   -0.3646 O   0  0  0  0  0  0  0  0  0  0  0  0
  -15.8668   -0.7980   -0.4949 S   0  0  0  0  0  0  0  0  0  0  0  0
  -15.5144   -0.3673   -1.8948 O   0  0  0  0  0  0  0  0  0  0  0  0
  -17.2652    0.0325    0.1080 C   0  0  0  0  0  0  0  0  0  0  0  0
  -18.5719   -0.0444   -0.3010 C   0  0  0  0  0  0  0  0  0  0  0  0
  -19.5606    0.6996    0.3233 C   0  0  0  0  0  0  0  0  0  0  0  0
  -19.1487    1.4974    1.3542 C   0  0  0  0  0  0  0  0  0  0  0  0
  -17.8607    1.5697    1.7529 C   0  0  0  0  0  0  0  0  0  0  0  0
  -16.8420    0.8222    1.1347 C   0  0  0  0  0  0  0  0  0  0  0  0
  -15.4339    0.7639    1.4212 C   0  0  0  0  0  0  0  0  0  0  0  0
  -14.6948    1.4606    2.3967 C   0  0  0  0  0  0  0  0  0  0  0  0
  -13.3422    1.2991    2.5121 C   0  0  0  0  0  0  0  0  0  0  0  0
  -12.6174    0.4630    1.6993 C   0  0  0  0  0  0  0  0  0  0  0  0
  -13.3327   -0.2313    0.7347 C   0  0  0  0  0  0  0  0  0  0  0  0
  -14.7048   -0.0666    0.6217 C   0  0  0  0  0  0  0  0  0  0  0  0
  -18.8888   -0.6870   -1.1274 H   0  0  0  0  0  0  0  0  0  0  0  0
  -19.9049    2.0929    1.8606 H   0  0  0  0  0  0  0  0  0  0  0  0
  -17.5926    2.2268    2.5964 H   0  0  0  0  0  0  0  0  0  0  0  0
  -15.2294    2.1514    3.0734 H   0  0  0  0  0  0  0  0  0  0  0  0
  -12.7979    1.8567    3.2885 H   0  0  0  0  0  0  0  0  0  0  0  0
  -12.8333   -0.8944    0.0716 H   0  0  0  0  0  0  0  0  0  0  0  0
  -11.1525    0.3128    1.7612 C   0  0  0  0  0  0  0  0  0  0  0  0
  -10.4000    1.0732    2.5950 C   0  0  0  0  0  0  0  0  0  0  0  0
   -9.0382    0.9994    2.6165 N   0  0  0  0  0  0  0  0  0  0  0  0
   -8.3965    0.1333    1.7741 C   0  0  0  0  0  0  0  0  0  0  0  0
   -9.2022   -0.6070    0.9616 C   0  0  0  0  0  0  0  0  0  0  0  0
  -10.5501   -0.5665    0.9061 N   0  0  0  0  0  0  0  0  0  0  0  0
  -10.8293    1.7799    3.3051 H   0  0  0  0  0  0  0  0  0  0  0  0
   -8.7686   -1.3581    0.2928 H   0  0  0  0  0  0  0  0  0  0  0  0
   -6.9409    0.0224    1.8508 C   0  0  0  0  0  0  0  0  0  0  0  0
   -6.3608   -0.0245    3.1320 C   0  0  0  0  0  0  0  0  0  0  0  0
   -5.0038   -0.1096    3.2951 C   0  0  0  0  0  0  0  0  0  0  0  0
   -4.1439   -0.1498    2.2056 C   0  0  0  0  0  0  0  0  0  0  0  0
   -2.7776   -0.2423    2.3985 C   0  0  0  0  0  0  0  0  0  0  0  0
   -1.9072   -0.2942    1.3128 C   0  0  0  0  0  0  0  0  0  0  0  0
   -2.4226   -0.2505    0.0603 C   0  0  0  0  0  0  0  0  0  0  0  0
   -1.5443   -0.2730   -1.0175 C   0  0  0  0  0  0  0  0  0  0  0  0
   -2.0810   -0.1831   -2.2772 C   0  0  0  0  0  0  0  0  0  0  0  0
   -3.4598   -0.0832   -2.4527 C   0  0  0  0  0  0  0  0  0  0  0  0
   -4.3272   -0.0690   -1.3862 C   0  0  0  0  0  0  0  0  0  0  0  0
   -5.6835    0.0341   -1.5671 C   0  0  0  0  0  0  0  0  0  0  0  0
   -6.5831    0.0626   -0.4917 C   0  0  0  0  0  0  0  0  0  0  0  0
   -6.0789   -0.0149    0.7777 C   0  0  0  0  0  0  0  0  0  0  0  0
   -4.6953   -0.1023    0.9457 C   0  0  0  0  0  0  0  0  0  0  0  0
   -3.8046   -0.1517   -0.1073 C   0  0  0  0  0  0  0  0  0  0  0  0
   -7.0563    0.0092    3.9720 H   0  0  0  0  0  0  0  0  0  0  0  0
   -4.5707   -0.1337    4.2849 H   0  0  0  0  0  0  0  0  0  0  0  0
   -2.3953   -0.2800    3.4019 H   0  0  0  0  0  0  0  0  0  0  0  0
   -0.8792   -0.3413    1.5544 H   0  0  0  0  0  0  0  0  0  0  0  0
   -1.4298   -0.1905   -3.1390 H   0  0  0  0  0  0  0  0  0  0  0  0
   -3.9116   -0.0246   -3.4485 H   0  0  0  0  0  0  0  0  0  0  0  0
   -6.0788    0.0892   -2.5728 H   0  0  0  0  0  0  0  0  0  0  0  0
   -7.6205    0.1783   -0.6976 H   0  0  0  0  0  0  0  0  0  0  0  0
    3.8171    1.0099   -3.0728 O   0  0  0  0  0  0  0  0  0  0  0  0
    3.6610    1.0300   -1.5753 S   0  0  0  0  0  0  0  0  0  0  0  0
    3.6527    2.4229   -1.0121 O   0  0  0  0  0  0  0  0  0  0  0  0
    2.2159    0.1345   -1.0972 C   0  0  0  0  0  0  0  0  0  0  0  0
    0.8639    0.3833   -1.3079 C   0  0  0  0  0  0  0  0  0  0  0  0
   -0.0952   -0.4694   -0.8490 C   0  0  0  0  0  0  0  0  0  0  0  0
    0.3633   -1.5971   -0.1681 C   0  0  0  0  0  0  0  0  0  0  0  0
    1.6806   -1.8480    0.0395 C   0  0  0  0  0  0  0  0  0  0  0  0
    2.6814   -0.9737   -0.4221 C   0  0  0  0  0  0  0  0  0  0  0  0
    4.1043   -1.0409   -0.2447 C   0  0  0  0  0  0  0  0  0  0  0  0
    4.8541   -2.0041    0.4552 C   0  0  0  0  0  0  0  0  0  0  0  0
    6.2111   -1.9334    0.6165 C   0  0  0  0  0  0  0  0  0  0  0  0
    6.9026   -0.8729    0.0733 C   0  0  0  0  0  0  0  0  0  0  0  0
    6.2081    0.0856   -0.6180 C   0  0  0  0  0  0  0  0  0  0  0  0
    4.8206   -0.0011   -0.7731 C   0  0  0  0  0  0  0  0  0  0  0  0
    0.6054    1.2685   -1.8468 H   0  0  0  0  0  0  0  0  0  0  0  0
   -0.4167   -2.2586    0.1861 H   0  0  0  0  0  0  0  0  0  0  0  0
    1.9901   -2.7673    0.5805 H   0  0  0  0  0  0  0  0  0  0  0  0
    4.3251   -2.8640    0.9014 H   0  0  0  0  0  0  0  0  0  0  0  0
    6.6704   -2.7483    1.1729 H   0  0  0  0  0  0  0  0  0  0  0  0
    6.7490    0.9061   -1.0386 H   0  0  0  0  0  0  0  0  0  0  0  0
   11.5593    2.4768   -0.4567 O   0  0  0  0  0  0  0  0  0  0  0  0
   11.5681    1.6680    0.7981 S   0  0  0  0  0  0  0  0  0  0  0  0
   11.2743    2.4858    2.0078 O   0  0  0  0  0  0  0  0  0  0  0  0
   10.4134    0.3345    0.6437 C   0  0  0  0  0  0  0  0  0  0  0  0
    9.0409    0.3417    0.3911 C   0  0  0  0  0  0  0  0  0  0  0  0
    8.3414   -0.8472    0.3143 C   0  0  0  0  0  0  0  0  0  0  0  0
    9.0859   -1.9881    0.5013 C   0  0  0  0  0  0  0  0  0  0  0  0
   10.4339   -2.0138    0.7504 C   0  0  0  0  0  0  0  0  0  0  0  0
   11.1581   -0.7956    0.8293 C   0  0  0  0  0  0  0  0  0  0  0  0
   12.5576   -0.6138    1.0027 C   0  0  0  0  0  0  0  0  0  0  0  0
   13.5853   -1.5645    1.1346 C   0  0  0  0  0  0  0  0  0  0  0  0
   14.8964   -1.2363    1.2043 C   0  0  0  0  0  0  0  0  0  0  0  0
   15.3249    0.0723    1.1479 C   0  0  0  0  0  0  0  0  0  0  0  0
   14.3221    1.0189    1.0234 C   0  0  0  0  0  0  0  0  0  0  0  0
   12.9950    0.6899    0.9551 C   0  0  0  0  0  0  0  0  0  0  0  0
    8.5584    1.2836    0.2515 H   0  0  0  0  0  0  0  0  0  0  0  0
    8.5355   -2.9567    0.4345 H   0  0  0  0  0  0  0  0  0  0  0  0
   10.9685   -2.9614    0.8958 H   0  0  0  0  0  0  0  0  0  0  0  0
   13.3335   -2.6347    1.1753 H   0  0  0  0  0  0  0  0  0  0  0  0
   15.6376   -2.0067    1.3103 H   0  0  0  0  0  0  0  0  0  0  0  0
   14.6563    2.0745    0.9845 H   0  0  0  0  0  0  0  0  0  0  0  0
   16.7429    0.3445    1.1189 C   0  0  0  0  0  0  0  0  0  0  0  0
   17.3089    1.5858    0.9345 C   0  0  0  0  0  0  0  0  0  0  0  0
   18.6330    1.7627    0.7988 N   0  0  0  0  0  0  0  0  0  0  0  0
   19.5065    0.6991    0.8408 C   0  0  0  0  0  0  0  0  0  0  0  0
   18.9148   -0.5133    1.0327 C   0  0  0  0  0  0  0  0  0  0  0  0
   17.6001   -0.7113    1.1683 N   0  0  0  0  0  0  0  0  0  0  0  0
   16.6425    2.4683    0.8896 H   0  0  0  0  0  0  0  0  0  0  0  0
   19.5573   -1.3903    1.1326 H   0  0  0  0  0  0  0  0  0  0  0  0
   20.9166    0.9948    0.6914 C   0  0  0  0  0  0  0  0  0  0  0  0
   21.4771    2.0429    1.4091 C   0  0  0  0  0  0  0  0  0  0  0  0
   22.8110    2.4243    1.2457 C   0  0  0  0  0  0  0  0  0  0  0  0
   23.6009    1.7579    0.3571 C   0  0  0  0  0  0  0  0  0  0  0  0
   24.9458    2.1472    0.1624 C   0  0  0  0  0  0  0  0  0  0  0  0
   25.6815    1.4827   -0.7400 C   0  0  0  0  0  0  0  0  0  0  0  0
   25.1840    0.4253   -1.4984 C   0  0  0  0  0  0  0  0  0  0  0  0
   25.9685   -0.2022   -2.4128 C   0  0  0  0  0  0  0  0  0  0  0  0
   25.4780   -1.2448   -3.1841 C   0  0  0  0  0  0  0  0  0  0  0  0
   24.1548   -1.6142   -2.9818 C   0  0  0  0  0  0  0  0  0  0  0  0
   23.3979   -0.9668   -2.0635 C   0  0  0  0  0  0  0  0  0  0  0  0
   22.0681   -1.3242   -1.8762 C   0  0  0  0  0  0  0  0  0  0  0  0
   21.2435   -0.6897   -0.9661 C   0  0  0  0  0  0  0  0  0  0  0  0
   21.7309    0.3317   -0.2057 C   0  0  0  0  0  0  0  0  0  0  0  0
   23.0747    0.7132   -0.3750 C   0  0  0  0  0  0  0  0  0  0  0  0
   23.8651    0.0642   -1.2883 C   0  0  0  0  0  0  0  0  0  0  0  0
   20.8809    2.5779    2.1212 H   0  0  0  0  0  0  0  0  0  0  0  0
   23.2614    3.2413    1.8040 H   0  0  0  0  0  0  0  0  0  0  0  0
   25.2952    2.9757    0.7855 H   0  0  0  0  0  0  0  0  0  0  0  0
   26.7252    1.7768   -0.9131 H   0  0  0  0  0  0  0  0  0  0  0  0
   26.1385   -1.7034   -3.8876 H   0  0  0  0  0  0  0  0  0  0  0  0
   23.8033   -2.4357   -3.6004 H   0  0  0  0  0  0  0  0  0  0  0  0
   21.6412   -2.1442   -2.4767 H   0  0  0  0  0  0  0  0  0  0  0  0
   20.2192   -1.0272   -0.9429 H   0  0  0  0  0  0  0  0  0  0  0  0
  -28.5242   -1.0216   -2.6238 H   0  0  0  0  0  0  0  0  0  0  0  0
   26.9879    0.1351   -2.5184 H   0  0  0  0  0  0  0  0  0  0  0  0
  1  2  2  0
  2  3  2  0
  2  4  1  0
  4  5  2  0
  5  6  1  0
  6  7  2  0
  7  8  1  0
  8  9  2  0
  9 10  1  0
 10 11  2  0
 11 12  1  0
 12 13  2  0
 13 14  1  0
 14 15  2  0
 15  2  1  0
  9  4  1  0
 15 10  1  0
  5 16  1  0
  7 17  1  0
  8 18  1  0
 11 19  1  0
 12 20  1  0
 14 21  1  0
 22 23  2  0
 23 24  2  0
 23 25  1  0
 25 26  2  0
 26 27  1  0
 27 28  2  0
 28 29  1  0
 29 30  2  0
 30 31  1  0
 31 32  2  0
 32 33  1  0
 33 34  2  0
 34 35  1  0
 35 36  2  0
 36 23  1  0
 30 25  1  0
 36 31  1  0
 26 37  1  0
 28 38  1  0
 29 39  1  0
 32 40  1  0
 33 41  1  0
 35 42  1  0
 43 44  2  0
 44 45  1  0
 45 46  2  0
 46 47  1  0
 47 48  2  0
 48 43  1  0
 44 49  1  0
 47 50  1  0
 51 52  2  0
 52 53  1  0
 53 54  2  0
 54 55  1  0
 55 56  2  0
 56 57  1  0
 57 58  2  0
 58 59  1  0
 59 60  2  0
 60 61  1  0
 61 62  2  0
 62 63  1  0
 63 64  2  0
 64 65  1  0
 65 66  2  0
 64 51  1  0
 65 54  1  0
 66 57  1  0
 66 61  1  0
 52 67  1  0
 53 68  1  0
 55 69  1  0
 56 70  1  0
 59 71  1  0
 60 72  1  0
 62 73  1  0
 63 74  1  0
 75 76  2  0
 76 77  2  0
 76 78  1  0
 78 79  2  0
 79 80  1  0
 80 81  2  0
 81 82  1  0
 82 83  2  0
 83 84  1  0
 84 85  2  0
 85 86  1  0
 86 87  2  0
 87 88  1  0
 88 89  2  0
 89 76  1  0
 83 78  1  0
 89 84  1  0
 79 90  1  0
 81 91  1  0
 82 92  1  0
 85 93  1  0
 86 94  1  0
 88 95  1  0
 96 97  2  0
 97 98  2  0
 97 99  1  0
 99100  2  0
100101  1  0
101102  2  0
102103  1  0
103104  2  0
104105  1  0
105106  2  0
106107  1  0
107108  2  0
108109  1  0
109110  2  0
110 97  1  0
104 99  1  0
110105  1  0
100111  1  0
102112  1  0
103113  1  0
106114  1  0
107115  1  0
109116  1  0
117118  2  0
118119  1  0
119120  2  0
120121  1  0
121122  2  0
122117  1  0
118123  1  0
121124  1  0
125126  2  0
126127  1  0
127128  2  0
128129  1  0
129130  2  0
130131  1  0
131132  2  0
132133  1  0
133134  2  0
134135  1  0
135136  2  0
136137  1  0
137138  2  0
138139  1  0
139140  2  0
138125  1  0
139128  1  0
140131  1  0
140135  1  0
126141  1  0
127142  1  0
129143  1  0
130144  1  0
133145  1  0
134146  1  0
136147  1  0
137148  1  0
 13 27  1  0
 34 43  1  0
 46 51  1  0
 58 80  1  0
 87101  1  0
108117  1  0
120125  1  0
  6149  1  0
132150  1  0
M  END
