130

O        -20.93340        0.68350        2.64100
S        -20.83190        1.28920        1.28200
O        -20.94700        2.77350        1.30090
C        -21.92980        0.57180        0.14370
C        -23.30800        0.54560        0.12770
C        -24.00110       -0.07240       -0.88800
C        -23.24780       -0.66010       -1.88080
C        -21.89140       -0.62810       -1.85330
C        -21.17020       -0.00250       -0.82500
C        -19.74160        0.10370       -0.63960
C        -18.69840       -0.40320       -1.44620
C        -17.39320       -0.21920       -1.08560
C        -17.00970        0.46220        0.07040
C        -18.00860        0.95530        0.85500
C        -19.33950        0.76340        0.48060
H        -23.88280        1.01810        0.93360
H        -23.74360       -1.16700       -2.71750
H        -21.36420       -1.11750       -2.68470
H        -18.95630       -0.94030       -2.35620
H        -16.58360       -0.61080       -1.71190
H        -17.78780        1.48560        1.75140
N        -11.91750       -2.41100       -0.62020
C        -12.53200       -1.48780       -0.25280
C        -13.34310       -0.36540        0.19280
C        -14.72560       -0.44650       -0.02330
C        -15.57940        0.58120        0.35990
C        -15.00380        1.66780        0.95690
C        -13.63240        1.75250        1.17380
C        -12.77840        0.71810        0.78570
H        -15.12690       -1.32040       -0.49390
H        -15.68950        2.47120        1.25720
H        -13.22550        2.61640        1.64480
C        -11.33030        0.84430        0.96450
C        -10.68920        2.02000        1.28980
N         -9.33020        2.07190        1.36680
C         -8.55690        0.97140        1.12790
C         -9.20950       -0.17560        0.81390
N        -10.53620       -0.20700        0.74170
H        -11.27950        2.91780        1.48530
H         -8.61370       -1.09070        0.66900
C         -7.11380        1.11230        1.31820
C         -6.69300        1.81540        2.44760
C         -5.35000        1.97500        2.72350
C         -4.37220        1.45230        1.90150
C         -3.02840        1.61200        2.19110
C         -2.03830        1.09350        1.38020
C         -2.41860        0.41280        0.27040
C         -1.45030       -0.09300       -0.54780
C         -1.86420       -0.78310       -1.69530
C         -3.20010       -0.93550       -1.97470
C         -4.17930       -0.42360       -1.14720
C         -5.50400       -0.58790       -1.45470
C         -6.51890       -0.08240       -0.64240
C         -6.14840        0.59420        0.49350
C         -4.77900        0.76250        0.78440
C         -3.78060        0.25450       -0.01510
H         -7.46670        2.23280        3.09800
H         -5.05730        2.53280        3.61560
H         -2.73640        2.16800        3.08820
H         -1.01670        1.23410        1.65600
H         -1.12510       -1.19540       -2.35240
H         -3.54800       -1.46880       -2.86560
H         -5.80480       -1.12040       -2.35080
H         -7.54410       -0.19440       -0.96150
O          3.26330       -3.13300        0.96770
S          3.39480       -2.27740       -0.25000
O          3.34440       -3.07500       -1.51700
C          2.15650       -1.00350       -0.27180
C          0.78480       -1.12380       -0.37250
C         -0.00970        0.03130       -0.37380
C          0.66430        1.22510       -0.27050
C          2.02970        1.31640       -0.17250
C          2.84210        0.16430       -0.17150
C          4.27030        0.06450       -0.11780
C          5.22700        1.06850       -0.04890
C          6.56170        0.83670       -0.04010
C          7.03750       -0.45110       -0.10260
C          6.09710       -1.45520       -0.16920
C          4.75410       -1.20790       -0.17630
H          0.31980       -2.07030       -0.44940
H          0.03620        2.12990       -0.27430
H          2.49370        2.30700       -0.09420
H          4.92990        2.13100        0.00630
H          7.30480        1.63580        0.01480
H          6.49740       -2.47750       -0.22110
N         11.06790       -4.18370       -2.30790
C         10.76310       -3.26250       -1.66010
C         10.35000       -2.11340       -0.89540
C          8.97210       -1.84820       -0.79300
C          8.46200       -0.74920       -0.15310
C          9.38630        0.11090        0.40690
C         10.72520       -0.13860        0.31390
C         11.26630       -1.26810       -0.34440
H          8.28030       -2.54380       -1.24050
H          9.00390        0.98520        0.91940
H         11.44080        0.55270        0.76070
C         12.70800       -1.37840       -0.45220
C         13.48600       -2.48320       -0.50020
N         14.83490       -2.36510       -0.56560
C         15.49660       -1.20240       -0.58660
C         14.69100       -0.06520       -0.53370
N         13.36260       -0.17470       -0.46930
H         13.03960       -3.48420       -0.43930
H         15.18800        0.90750       -0.58210
C         16.93730       -1.12520       -0.79110
C         17.48830       -1.90770       -1.82510
C         18.82970       -1.89130       -2.09550
C         19.70950       -1.11370       -1.37350
C         21.07570       -1.10820       -1.66430
C         21.96710       -0.33810       -0.95040
C         21.45150        0.43070        0.07020
C         22.34870        1.18510        0.79650
C         21.83740        1.93630        1.82630
C         20.49090        1.94450        2.13070
C         19.60770        1.17950        1.38740
C         18.25940        1.16710        1.68280
C         17.32810        0.40940        0.97320
C         17.81900       -0.35520       -0.07280
C         19.19130       -0.34730       -0.36050
C         20.10300        0.41630        0.34480
H         16.80770       -2.52740       -2.40250
H         19.23770       -2.49840       -2.89610
H         21.48880       -1.71040       -2.45870
H         23.02770       -0.34390       -1.18730
H         22.49290        2.55070        2.43050
H         20.07210        2.52260        2.93600
H         17.85840        1.75380        2.49670
H         16.30580        0.40620        1.26730
H        -25.06510       -0.12100       -0.95200
H         23.41250        1.22770        0.61430
