
     RDKit          3D

130147  0  0  0  0  0  0  0  0999 V2000
  -20.9334    0.6835    2.6410 O   0  0  0  0  0  0  0  0  0  0  0  0
  -20.8319    1.2892    1.2820 S   0  0  0  0  0  0  0  0  0  0  0  0
  -20.9470    2.7735    1.3009 O   0  0  0  0  0  0  0  0  0  0  0  0
  -21.9298    0.5718    0.1437 C   0  0  0  0  0  0  0  0  0  0  0  0
  -23.3080    0.5456    0.1277 C   0  0  0  0  0  0  0  0  0  0  0  0
  -24.0011   -0.0724   -0.8880 C   0  0  0  0  0  0  0  0  0  0  0  0
  -23.2478   -0.6601   -1.8808 C   0  0  0  0  0  0  0  0  0  0  0  0
  -21.8914   -0.6281   -1.8533 C   0  0  0  0  0  0  0  0  0  0  0  0
  -21.1702   -0.0025   -0.8250 C   0  0  0  0  0  0  0  0  0  0  0  0
  -19.7416    0.1037   -0.6396 C   0  0  0  0  0  0  0  0  0  0  0  0
  -18.6984   -0.4032   -1.4462 C   0  0  0  0  0  0  0  0  0  0  0  0
  -17.3932   -0.2192   -1.0856 C   0  0  0  0  0  0  0  0  0  0  0  0
  -17.0097    0.4622    0.0704 C   0  0  0  0  0  0  0  0  0  0  0  0
  -18.0086    0.9553    0.8550 C   0  0  0  0  0  0  0  0  0  0  0  0
  -19.3395    0.7634    0.4806 C   0  0  0  0  0  0  0  0  0  0  0  0
  -23.8828    1.0181    0.9336 H   0  0  0  0  0  0  0  0  0  0  0  0
  -23.7436   -1.1670   -2.7175 H   0  0  0  0  0  0  0  0  0  0  0  0
  -21.3642   -1.1175   -2.6847 H   0  0  0  0  0  0  0  0  0  0  0  0
  -18.9563   -0.9403   -2.3562 H   0  0  0  0  0  0  0  0  0  0  0  0
  -16.5836   -0.6108   -1.7119 H   0  0  0  0  0  0  0  0  0  0  0  0
  -17.7878    1.4856    1.7514 H   0  0  0  0  0  0  0  0  0  0  0  0
  -11.9175   -2.4110   -0.6202 N   0  0  0  0  0  0  0  0  0  0  0  0
  -12.5320   -1.4878   -0.2528 C   0  0  0  0  0  0  0  0  0  0  0  0
  -13.3431   -0.3654    0.1928 C   0  0  0  0  0  0  0  0  0  0  0  0
  -14.7256   -0.4465   -0.0233 C   0  0  0  0  0  0  0  0  0  0  0  0
  -15.5794    0.5812    0.3599 C   0  0  0  0  0  0  0  0  0  0  0  0
  -15.0038    1.6678    0.9569 C   0  0  0  0  0  0  0  0  0  0  0  0
  -13.6324    1.7525    1.1738 C   0  0  0  0  0  0  0  0  0  0  0  0
  -12.7784    0.7181    0.7857 C   0  0  0  0  0  0  0  0  0  0  0  0
  -15.1269   -1.3204   -0.4939 H   0  0  0  0  0  0  0  0  0  0  0  0
  -15.6895    2.4712    1.2572 H   0  0  0  0  0  0  0  0  0  0  0  0
  -13.2255    2.6164    1.6448 H   0  0  0  0  0  0  0  0  0  0  0  0
  -11.3303    0.8443    0.9645 C   0  0  0  0  0  0  0  0  0  0  0  0
  -10.6892    2.0200    1.2898 C   0  0  0  0  0  0  0  0  0  0  0  0
   -9.3302    2.0719    1.3668 N   0  0  0  0  0  0  0  0  0  0  0  0
   -8.5569    0.9714    1.1279 C   0  0  0  0  0  0  0  0  0  0  0  0
   -9.2095   -0.1756    0.8139 C   0  0  0  0  0  0  0  0  0  0  0  0
  -10.5362   -0.2070    0.7417 N   0  0  0  0  0  0  0  0  0  0  0  0
  -11.2795    2.9178    1.4853 H   0  0  0  0  0  0  0  0  0  0  0  0
   -8.6137   -1.0907    0.6690 H   0  0  0  0  0  0  0  0  0  0  0  0
   -7.1138    1.1123    1.3182 C   0  0  0  0  0  0  0  0  0  0  0  0
   -6.6930    1.8154    2.4476 C   0  0  0  0  0  0  0  0  0  0  0  0
   -5.3500    1.9750    2.7235 C   0  0  0  0  0  0  0  0  0  0  0  0
   -4.3722    1.4523    1.9015 C   0  0  0  0  0  0  0  0  0  0  0  0
   -3.0284    1.6120    2.1911 C   0  0  0  0  0  0  0  0  0  0  0  0
   -2.0383    1.0935    1.3802 C   0  0  0  0  0  0  0  0  0  0  0  0
   -2.4186    0.4128    0.2704 C   0  0  0  0  0  0  0  0  0  0  0  0
   -1.4503   -0.0930   -0.5478 C   0  0  0  0  0  0  0  0  0  0  0  0
   -1.8642   -0.7831   -1.6953 C   0  0  0  0  0  0  0  0  0  0  0  0
   -3.2001   -0.9355   -1.9747 C   0  0  0  0  0  0  0  0  0  0  0  0
   -4.1793   -0.4236   -1.1472 C   0  0  0  0  0  0  0  0  0  0  0  0
   -5.5040   -0.5879   -1.4547 C   0  0  0  0  0  0  0  0  0  0  0  0
   -6.5189   -0.0824   -0.6424 C   0  0  0  0  0  0  0  0  0  0  0  0
   -6.1484    0.5942    0.4935 C   0  0  0  0  0  0  0  0  0  0  0  0
   -4.7790    0.7625    0.7844 C   0  0  0  0  0  0  0  0  0  0  0  0
   -3.7806    0.2545   -0.0151 C   0  0  0  0  0  0  0  0  0  0  0  0
   -7.4667    2.2328    3.0980 H   0  0  0  0  0  0  0  0  0  0  0  0
   -5.0573    2.5328    3.6156 H   0  0  0  0  0  0  0  0  0  0  0  0
   -2.7364    2.1680    3.0882 H   0  0  0  0  0  0  0  0  0  0  0  0
   -1.0167    1.2341    1.6560 H   0  0  0  0  0  0  0  0  0  0  0  0
   -1.1251   -1.1954   -2.3524 H   0  0  0  0  0  0  0  0  0  0  0  0
   -3.5480   -1.4688   -2.8656 H   0  0  0  0  0  0  0  0  0  0  0  0
   -5.8048   -1.1204   -2.3508 H   0  0  0  0  0  0  0  0  0  0  0  0
   -7.5441   -0.1944   -0.9615 H   0  0  0  0  0  0  0  0  0  0  0  0
    3.2633   -3.1330    0.9677 O   0  0  0  0  0  0  0  0  0  0  0  0
    3.3948   -2.2774   -0.2500 S   0  0  0  0  0  0  0  0  0  0  0  0
    3.3444   -3.0750   -1.5170 O   0  0  0  0  0  0  0  0  0  0  0  0
    2.1565   -1.0035   -0.2718 C   0  0  0  0  0  0  0  0  0  0  0  0
    0.7848   -1.1238   -0.3725 C   0  0  0  0  0  0  0  0  0  0  0  0
   -0.0097    0.0313   -0.3738 C   0  0  0  0  0  0  0  0  0  0  0  0
    0.6643    1.2251   -0.2705 C   0  0  0  0  0  0  0  0  0  0  0  0
    2.0297    1.3164   -0.1725 C   0  0  0  0  0  0  0  0  0  0  0  0
    2.8421    0.1643   -0.1715 C   0  0  0  0  0  0  0  0  0  0  0  0
    4.2703    0.0645   -0.1178 C   0  0  0  0  0  0  0  0  0  0  0  0
    5.2270    1.0685   -0.0489 C   0  0  0  0  0  0  0  0  0  0  0  0
    6.5617    0.8367   -0.0401 C   0  0  0  0  0  0  0  0  0  0  0  0
    7.0375   -0.4511   -0.1026 C   0  0  0  0  0  0  0  0  0  0  0  0
    6.0971   -1.4552   -0.1692 C   0  0  0  0  0  0  0  0  0  0  0  0
    4.7541   -1.2079   -0.1763 C   0  0  0  0  0  0  0  0  0  0  0  0
    0.3198   -2.0703   -0.4494 H   0  0  0  0  0  0  0  0  0  0  0  0
    0.0362    2.1299   -0.2743 H   0  0  0  0  0  0  0  0  0  0  0  0
    2.4937    2.3070   -0.0942 H   0  0  0  0  0  0  0  0  0  0  0  0
    4.9299    2.1310    0.0063 H   0  0  0  0  0  0  0  0  0  0  0  0
    7.3048    1.6358    0.0148 H   0  0  0  0  0  0  0  0  0  0  0  0
    6.4974   -2.4775   -0.2211 H   0  0  0  0  0  0  0  0  0  0  0  0
   11.0679   -4.1837   -2.3079 N   0  0  0  0  0  0  0  0  0  0  0  0
   10.7631   -3.2625   -1.6601 C   0  0  0  0  0  0  0  0  0  0  0  0
   10.3500   -2.1134   -0.8954 C   0  0  0  0  0  0  0  0  0  0  0  0
    8.9721   -1.8482   -0.7930 C   0  0  0  0  0  0  0  0  0  0  0  0
    8.4620   -0.7492   -0.1531 C   0  0  0  0  0  0  0  0  0  0  0  0
    9.3863    0.1109    0.4069 C   0  0  0  0  0  0  0  0  0  0  0  0
   10.7252   -0.1386    0.3139 C   0  0  0  0  0  0  0  0  0  0  0  0
   11.2663   -1.2681   -0.3444 C   0  0  0  0  0  0  0  0  0  0  0  0
    8.2803   -2.5438   -1.2405 H   0  0  0  0  0  0  0  0  0  0  0  0
    9.0039    0.9852    0.9194 H   0  0  0  0  0  0  0  0  0  0  0  0
   11.4408    0.5527    0.7607 H   0  0  0  0  0  0  0  0  0  0  0  0
   12.7080   -1.3784   -0.4522 C   0  0  0  0  0  0  0  0  0  0  0  0
   13.4860   -2.4832   -0.5002 C   0  0  0  0  0  0  0  0  0  0  0  0
   14.8349   -2.3651   -0.5656 N   0  0  0  0  0  0  0  0  0  0  0  0
   15.4966   -1.2024   -0.5866 C   0  0  0  0  0  0  0  0  0  0  0  0
   14.6910   -0.0652   -0.5337 C   0  0  0  0  0  0  0  0  0  0  0  0
   13.3626   -0.1747   -0.4693 N   0  0  0  0  0  0  0  0  0  0  0  0
   13.0396   -3.4842   -0.4393 H   0  0  0  0  0  0  0  0  0  0  0  0
   15.1880    0.9075   -0.5821 H   0  0  0  0  0  0  0  0  0  0  0  0
   16.9373   -1.1252   -0.7911 C   0  0  0  0  0  0  0  0  0  0  0  0
   17.4883   -1.9077   -1.8251 C   0  0  0  0  0  0  0  0  0  0  0  0
   18.8297   -1.8913   -2.0955 C   0  0  0  0  0  0  0  0  0  0  0  0
   19.7095   -1.1137   -1.3735 C   0  0  0  0  0  0  0  0  0  0  0  0
   21.0757   -1.1082   -1.6643 C   0  0  0  0  0  0  0  0  0  0  0  0
   21.9671   -0.3381   -0.9504 C   0  0  0  0  0  0  0  0  0  0  0  0
   21.4515    0.4307    0.0702 C   0  0  0  0  0  0  0  0  0  0  0  0
   22.3487    1.1851    0.7965 C   0  0  0  0  0  0  0  0  0  0  0  0
   21.8374    1.9363    1.8263 C   0  0  0  0  0  0  0  0  0  0  0  0
   20.4909    1.9445    2.1307 C   0  0  0  0  0  0  0  0  0  0  0  0
   19.6077    1.1795    1.3874 C   0  0  0  0  0  0  0  0  0  0  0  0
   18.2594    1.1671    1.6828 C   0  0  0  0  0  0  0  0  0  0  0  0
   17.3281    0.4094    0.9732 C   0  0  0  0  0  0  0  0  0  0  0  0
   17.8190   -0.3552   -0.0728 C   0  0  0  0  0  0  0  0  0  0  0  0
   19.1913   -0.3473   -0.3605 C   0  0  0  0  0  0  0  0  0  0  0  0
   20.1030    0.4163    0.3448 C   0  0  0  0  0  0  0  0  0  0  0  0
   16.8077   -2.5274   -2.4025 H   0  0  0  0  0  0  0  0  0  0  0  0
   19.2377   -2.4984   -2.8961 H   0  0  0  0  0  0  0  0  0  0  0  0
   21.4888   -1.7104   -2.4587 H   0  0  0  0  0  0  0  0  0  0  0  0
   23.0277   -0.3439   -1.1873 H   0  0  0  0  0  0  0  0  0  0  0  0
   22.4929    2.5507    2.4305 H   0  0  0  0  0  0  0  0  0  0  0  0
   20.0721    2.5226    2.9360 H   0  0  0  0  0  0  0  0  0  0  0  0
   17.8584    1.7538    2.4967 H   0  0  0  0  0  0  0  0  0  0  0  0
   16.3058    0.4062    1.2673 H   0  0  0  0  0  0  0  0  0  0  0  0
  -25.0651   -0.1210   -0.9520 H   0  0  0  0  0  0  0  0  0  0  0  0
   23.4125    1.2277    0.6143 H   0  0  0  0  0  0  0  0  0  0  0  0
  1  2  2  0
  2  3  2  0
  2  4  1  0
  4  5  2  0
  5  6  1  0
  6  7  2  0
  7  8  1  0
  8  9  2  0
  9 10  1  0
 10 11  2  0
 11 12  1  0
 12 13  2  0
 13 14  1  0
 14 15  2  0
 15  2  1  0
  9  4  1  0
 15 10  1  0
  5 16  1  0
  7 17  1  0
  8 18  1  0
 11 19  1  0
 12 20  1  0
 14 21  1  0
 22 23  3  0
 23 24  1  0
 24 25  2  0
 25 26  1  0
 26 27  2  0
 27 28  1  0
 28 29  2  0
 29 24  1  0
 25 30  1  0
 27 31  1  0
 28 32  1  0
 33 34  2  0
 34 35  1  0
 35 36  2  0
 36 37  1  0
 37 38  2  0
 38 33  1  0
 34 39  1  0
 37 40  1  0
 41 42  2  0
 42 43  1  0
 43 44  2  0
 44 45  1  0
 45 46  2  0
 46 47  1  0
 47 48  2  0
 48 49  1  0
 49 50  2  0
 50 51  1  0
 51 52  2  0
 52 53  1  0
 53 54  2  0
 54 55  1  0
 55 56  2  0
 54 41  1  0
 55 44  1  0
 56 47  1  0
 56 51  1  0
 42 57  1  0
 43 58  1  0
 45 59  1  0
 46 60  1  0
 49 61  1  0
 50 62  1  0
 52 63  1  0
 53 64  1  0
 65 66  2  0
 66 67  2  0
 66 68  1  0
 68 69  2  0
 69 70  1  0
 70 71  2  0
 71 72  1  0
 72 73  2  0
 73 74  1  0
 74 75  2  0
 75 76  1  0
 76 77  2  0
 77 78  1  0
 78 79  2  0
 79 66  1  0
 73 68  1  0
 79 74  1  0
 69 80  1  0
 71 81  1  0
 72 82  1  0
 75 83  1  0
 76 84  1  0
 78 85  1  0
 86 87  3  0
 87 88  1  0
 88 89  2  0
 89 90  1  0
 90 91  2  0
 91 92  1  0
 92 93  2  0
 93 88  1  0
 89 94  1  0
 91 95  1  0
 92 96  1  0
 97 98  2  0
 98 99  1  0
 99100  2  0
100101  1  0
101102  2  0
102 97  1  0
 98103  1  0
101104  1  0
105106  2  0
106107  1  0
107108  2  0
108109  1  0
109110  2  0
110111  1  0
111112  2  0
112113  1  0
113114  2  0
114115  1  0
115116  2  0
116117  1  0
117118  2  0
118119  1  0
119120  2  0
118105  1  0
119108  1  0
120111  1  0
120115  1  0
106121  1  0
107122  1  0
109123  1  0
110124  1  0
113125  1  0
114126  1  0
116127  1  0
117128  1  0
 13 26  1  0
 29 33  1  0
 36 41  1  0
 48 70  1  0
 77 90  1  0
 93 97  1  0
100105  1  0
  6129  1  0
112130  1  0
M  END
