142

N        -19.37030       -1.64750       -1.00310
C        -19.61600       -0.58010       -0.59960
C        -19.93440        0.73010       -0.11650
C        -21.17560        1.26120       -0.38110
C        -21.53100        2.51700        0.04250
C        -20.59780        3.22890        0.74330
C        -19.33340        2.69590        1.01690
C        -18.96330        1.43740        0.59840
H        -21.91810        0.67990       -0.94900
H        -20.86530        4.22540        1.08300
H        -18.61310        3.28300        1.57890
C        -17.69680        0.79740        0.88780
C        -17.66100       -0.42680        1.57370
C        -16.48890       -1.03200        1.89930
C        -15.28090       -0.44800        1.55850
C        -14.09330       -1.07030        1.87840
C        -12.85980       -0.53600        1.54730
C        -12.87070        0.66380        0.87290
C        -11.68240        1.21030        0.51530
C        -11.69510        2.42010       -0.18500
C        -12.85090        3.06520       -0.51820
C        -14.06820        2.49450       -0.14600
C        -15.23090        3.11110       -0.48080
C        -16.47250        2.55760       -0.13680
C        -16.50670        1.36660        0.55400
C        -15.29480        0.75080        0.88580
C        -14.07700        1.30510        0.54400
H        -18.61460       -0.86120        1.83390
H        -16.51010       -1.96740        2.42460
H        -14.14690       -2.02800        2.41760
H        -11.93400       -1.03720        1.80080
H        -10.76690        2.87490       -0.48040
H        -12.87220        4.01150       -1.06570
H        -15.23450        4.04210       -1.01770
H        -17.35570        3.08960       -0.44570
C        -10.35540        0.69060        0.83750
C         -9.91940        0.60760        2.15250
C         -8.65180        0.25220        2.52310
C         -7.71860       -0.05220        1.52380
C         -6.42220       -0.40180        1.86420
C         -5.49180       -0.69320        0.89270
C         -5.84180       -0.64060       -0.45160
C         -4.93500       -0.93890       -1.42050
C         -5.36460       -0.88450       -2.75450
C         -6.65700       -0.53850       -3.06530
C         -7.58250       -0.23000       -2.07660
C         -8.87840        0.12040       -2.43780
C         -9.78880        0.42710       -1.45130
C         -9.40320        0.37680       -0.14050
C         -8.09990        0.01090        0.20600
C         -7.16500       -0.28330       -0.76150
H        -10.63650        0.83920        2.92970
H         -8.36660        0.20330        3.55950
H         -6.16980       -0.43680        2.92720
H         -4.51290       -0.96850        1.17920
H         -4.62950       -1.12210       -3.51280
H         -6.96050       -0.50500       -4.12200
H         -9.13800        0.14320       -3.47730
H        -10.81400        0.68300       -1.73180
N          0.24970        0.81840        0.98660
C         -0.44960        0.13610        0.36220
C         -1.31750       -0.71690       -0.38220
C         -2.66040       -0.42170       -0.49600
C         -3.53520       -1.22570       -1.18480
C         -2.97250       -2.37550       -1.76500
C         -1.63240       -2.67710       -1.65630
C         -0.76800       -1.85810       -0.96680
H         -3.07300        0.48250       -0.03770
H         -3.66150       -3.02390       -2.30870
H         -1.22640       -3.58740       -2.12360
N          3.69770       -5.62410        0.38190
C          3.22400       -4.63610        0.00590
C          2.65000       -3.40100       -0.48230
C          1.24670       -3.21720       -0.47320
C          0.67160       -2.06780       -0.92400
C          1.51430       -1.04860       -1.40750
C          2.85640       -1.24770       -1.40670
C          3.47120       -2.42250       -0.94800
H          0.64750       -4.03950       -0.08890
H          1.05840       -0.12120       -1.78260
H          3.52140       -0.46000       -1.77840
C          4.92540       -2.54720       -1.06920
C          5.47900       -3.53830       -1.86340
C          6.83710       -3.54860       -2.10300
C          7.67370       -2.59410       -1.57210
C          9.04240       -2.62170       -1.86680
C          9.91270       -1.65510       -1.37110
C          9.38310       -0.66420       -0.57670
C         10.23160        0.30860       -0.06050
C          9.63490        1.27200        0.75410
C          8.30320        1.29340        1.04520
C          7.45620        0.31190        0.51480
C          6.10420        0.35130        0.80010
C          5.23280       -0.60440        0.27530
C          5.77430       -1.58300       -0.52670
C          7.14890       -1.60470       -0.77960
C          8.01180       -0.65040       -0.28860
H          4.83650       -4.31120       -2.29750
H          7.25360       -4.34500       -2.73790
H          9.41630       -3.41290       -2.48900
H         10.96990       -1.70470       -1.59850
H         10.28280        2.03990        1.16690
H          7.83110        2.03870        1.68180
H          5.69480        1.11470        1.43480
H          4.17700       -0.54500        0.54170
C         11.62950        0.41980       -0.44840
C         11.94030        0.59960       -1.81080
C         13.22120        0.79960       -2.24530
C         14.27550        0.83330       -1.35830
C         15.58050        1.03650       -1.79550
C         16.66380        1.07520       -0.92920
C         16.39220        0.89860        0.41070
C         17.43810        0.93600        1.30600
C         17.16310        0.76920        2.67200
C         15.86400        0.56900        3.09900
C         14.83170        0.53320        2.18080
C         13.54480        0.33130        2.62820
C         12.45810        0.28690        1.77020
C         12.69010        0.45460        0.42000
C         14.00260        0.65830       -0.01550
C         15.08420        0.69790        0.82870
H         11.08940        0.56920       -2.51230
H         13.45870        0.94000       -3.30020
H         15.75380        1.17250       -2.85630
H         17.64260        1.24950       -1.35100
H         18.00890        0.80680        3.34420
H         15.71870        0.44650        4.16730
H         13.32150        0.19530        3.69050
H         11.45280        0.11630        2.14230
N         21.84120       -1.56780       -1.89220
C         21.34910       -0.76660       -1.22140
C         20.71810        0.20720       -0.39240
C         19.42260        0.10940        0.06170
C         18.82080        1.07410        0.87270
C         19.55880        2.18380        1.24150
C         20.86120        2.30130        0.79650
C         21.42730        1.32520       -0.00830
H         18.81570       -0.74100       -0.20090
H         19.13520        2.97220        1.88080
H         21.43560        3.17030        1.08610
H        -22.51070        2.92680       -0.17230
H         22.45940        1.50120       -0.31170
