
     RDKit          3D

162185  0  0  0  0  0  0  0  0999 V2000
   21.8756    1.1780   -2.3794 O   0  0  0  0  0  0  0  0  0  0  0  0
   22.2494    1.6661   -1.0310 S   0  0  0  0  0  0  0  0  0  0  0  0
   22.3011    3.1669   -0.9535 O   0  0  0  0  0  0  0  0  0  0  0  0
   23.6844    0.9323   -0.3874 C   0  0  0  0  0  0  0  0  0  0  0  0
   24.9793    0.9618   -0.8409 C   0  0  0  0  0  0  0  0  0  0  0  0
   26.0015    0.3103   -0.1699 C   0  0  0  0  0  0  0  0  0  0  0  0
   25.6371   -0.3647    0.9746 C   0  0  0  0  0  0  0  0  0  0  0  0
   24.3553   -0.3868    1.4118 C   0  0  0  0  0  0  0  0  0  0  0  0
   23.3128    0.2693    0.7399 C   0  0  0  0  0  0  0  0  0  0  0  0
   21.9206    0.3321    1.0658 C   0  0  0  0  0  0  0  0  0  0  0  0
   21.2264   -0.2454    2.1540 C   0  0  0  0  0  0  0  0  0  0  0  0
   19.8774   -0.0781    2.2966 C   0  0  0  0  0  0  0  0  0  0  0  0
   19.1284    0.6462    1.4083 C   0  0  0  0  0  0  0  0  0  0  0  0
   19.7735    1.2325    0.3234 C   0  0  0  0  0  0  0  0  0  0  0  0
   21.1371    1.0440    0.2100 C   0  0  0  0  0  0  0  0  0  0  0  0
   25.2640    1.4962   -1.7501 H   0  0  0  0  0  0  0  0  0  0  0  0
   26.4231   -0.8901    1.5243 H   0  0  0  0  0  0  0  0  0  0  0  0
   24.1709   -0.9577    2.3351 H   0  0  0  0  0  0  0  0  0  0  0  0
   21.7583   -0.8369    2.8941 H   0  0  0  0  0  0  0  0  0  0  0  0
   19.3717   -0.5325    3.1400 H   0  0  0  0  0  0  0  0  0  0  0  0
   19.2454    1.8112   -0.4008 H   0  0  0  0  0  0  0  0  0  0  0  0
   17.6955    0.8925    1.5353 C   0  0  0  0  0  0  0  0  0  0  0  0
   17.2015    1.7373    2.5180 C   0  0  0  0  0  0  0  0  0  0  0  0
   15.8605    2.0313    2.6027 C   0  0  0  0  0  0  0  0  0  0  0  0
   14.9649    1.4858    1.7016 C   0  0  0  0  0  0  0  0  0  0  0  0
   13.6186    1.7550    1.7504 C   0  0  0  0  0  0  0  0  0  0  0  0
   12.7227    1.1984    0.8331 C   0  0  0  0  0  0  0  0  0  0  0  0
   13.1619    0.3550   -0.1587 C   0  0  0  0  0  0  0  0  0  0  0  0
   12.2496   -0.2095   -1.0595 C   0  0  0  0  0  0  0  0  0  0  0  0
   12.8004   -1.0672   -2.0061 C   0  0  0  0  0  0  0  0  0  0  0  0
   14.1431   -1.3492   -2.0679 C   0  0  0  0  0  0  0  0  0  0  0  0
   15.0216   -0.7694   -1.1593 C   0  0  0  0  0  0  0  0  0  0  0  0
   16.3625   -1.0605   -1.2265 C   0  0  0  0  0  0  0  0  0  0  0  0
   17.2560   -0.5055   -0.3330 C   0  0  0  0  0  0  0  0  0  0  0  0
   16.7720    0.3492    0.6352 C   0  0  0  0  0  0  0  0  0  0  0  0
   15.4190    0.6409    0.7134 C   0  0  0  0  0  0  0  0  0  0  0  0
   14.5163    0.0853   -0.2040 C   0  0  0  0  0  0  0  0  0  0  0  0
   17.9046    2.1571    3.2156 H   0  0  0  0  0  0  0  0  0  0  0  0
   15.4526    2.6911    3.3621 H   0  0  0  0  0  0  0  0  0  0  0  0
   13.2317    2.4057    2.5002 H   0  0  0  0  0  0  0  0  0  0  0  0
   11.6845    1.4331    0.9260 H   0  0  0  0  0  0  0  0  0  0  0  0
   12.1082   -1.5108   -2.7090 H   0  0  0  0  0  0  0  0  0  0  0  0
   14.5770   -2.0150   -2.8019 H   0  0  0  0  0  0  0  0  0  0  0  0
   16.7698   -1.7297   -1.9732 H   0  0  0  0  0  0  0  0  0  0  0  0
   18.3139   -0.7462   -0.3810 H   0  0  0  0  0  0  0  0  0  0  0  0
   10.8406    0.1476   -1.0624 C   0  0  0  0  0  0  0  0  0  0  0  0
   10.4464    1.4744   -1.2830 C   0  0  0  0  0  0  0  0  0  0  0  0
    9.1358    1.8591   -1.3468 C   0  0  0  0  0  0  0  0  0  0  0  0
    8.1419    0.9037   -1.1872 C   0  0  0  0  0  0  0  0  0  0  0  0
    6.8032    1.3199   -1.2332 C   0  0  0  0  0  0  0  0  0  0  0  0
    5.8022    0.3766   -1.0539 C   0  0  0  0  0  0  0  0  0  0  0  0
    6.1112   -0.9309   -0.8376 C   0  0  0  0  0  0  0  0  0  0  0  0
    5.0953   -1.8386   -0.6415 C   0  0  0  0  0  0  0  0  0  0  0  0
    5.4537   -3.1543   -0.4046 C   0  0  0  0  0  0  0  0  0  0  0  0
    6.7787   -3.5482   -0.3629 C   0  0  0  0  0  0  0  0  0  0  0  0
    7.8027   -2.6371   -0.5573 C   0  0  0  0  0  0  0  0  0  0  0  0
    9.1110   -3.0473   -0.4902 C   0  0  0  0  0  0  0  0  0  0  0  0
   10.1196   -2.1085   -0.6666 C   0  0  0  0  0  0  0  0  0  0  0  0
    9.8306   -0.7705   -0.9102 C   0  0  0  0  0  0  0  0  0  0  0  0
    8.4802   -0.4011   -0.9710 C   0  0  0  0  0  0  0  0  0  0  0  0
    7.4556   -1.3273   -0.7948 C   0  0  0  0  0  0  0  0  0  0  0  0
   11.2351    2.2254   -1.4065 H   0  0  0  0  0  0  0  0  0  0  0  0
    8.8095    2.8750   -1.5150 H   0  0  0  0  0  0  0  0  0  0  0  0
    6.5625    2.3611   -1.4051 H   0  0  0  0  0  0  0  0  0  0  0  0
    4.8123    0.7452   -1.0871 H   0  0  0  0  0  0  0  0  0  0  0  0
    4.6561   -3.8790   -0.2504 H   0  0  0  0  0  0  0  0  0  0  0  0
    7.0576   -4.5696   -0.1785 H   0  0  0  0  0  0  0  0  0  0  0  0
    9.3918   -4.0653   -0.3072 H   0  0  0  0  0  0  0  0  0  0  0  0
   11.1555   -2.3840   -0.6048 H   0  0  0  0  0  0  0  0  0  0  0  0
    0.2523   -2.0709    2.7156 N   0  0  0  0  0  0  0  0  0  0  0  0
    0.8420   -1.7965    1.7561 C   0  0  0  0  0  0  0  0  0  0  0  0
    1.5852   -1.4758    0.5756 C   0  0  0  0  0  0  0  0  0  0  0  0
    2.9177   -1.7883    0.5128 C   0  0  0  0  0  0  0  0  0  0  0  0
    3.6815   -1.4996   -0.6405 C   0  0  0  0  0  0  0  0  0  0  0  0
    3.0110   -0.9026   -1.6718 C   0  0  0  0  0  0  0  0  0  0  0  0
    1.6508   -0.5845   -1.6061 C   0  0  0  0  0  0  0  0  0  0  0  0
    0.9239   -0.8636   -0.4855 C   0  0  0  0  0  0  0  0  0  0  0  0
    3.4558   -2.2680    1.3328 H   0  0  0  0  0  0  0  0  0  0  0  0
    3.5641   -0.6683   -2.5718 H   0  0  0  0  0  0  0  0  0  0  0  0
    1.1570   -0.1053   -2.4555 H   0  0  0  0  0  0  0  0  0  0  0  0
   -4.6299   -2.1103   -1.8771 O   0  0  0  0  0  0  0  0  0  0  0  0
   -4.2784   -0.6652   -1.8664 S   0  0  0  0  0  0  0  0  0  0  0  0
   -4.1998   -0.0699   -3.2397 O   0  0  0  0  0  0  0  0  0  0  0  0
   -2.7898   -0.3638   -0.9610 C   0  0  0  0  0  0  0  0  0  0  0  0
   -1.4884   -0.8173   -1.1868 C   0  0  0  0  0  0  0  0  0  0  0  0
   -0.4845   -0.4675   -0.3521 C   0  0  0  0  0  0  0  0  0  0  0  0
   -0.8213    0.3633    0.7336 C   0  0  0  0  0  0  0  0  0  0  0  0
   -2.1006    0.7951    0.9357 C   0  0  0  0  0  0  0  0  0  0  0  0
   -3.1509    0.4366    0.0741 C   0  0  0  0  0  0  0  0  0  0  0  0
   -4.5393    0.7990    0.1498 C   0  0  0  0  0  0  0  0  0  0  0  0
   -5.1847    1.5990    1.0890 C   0  0  0  0  0  0  0  0  0  0  0  0
   -6.5251    1.8550    1.0252 C   0  0  0  0  0  0  0  0  0  0  0  0
   -7.3216    1.3318    0.0193 C   0  0  0  0  0  0  0  0  0  0  0  0
   -6.6750    0.5434   -0.9040 C   0  0  0  0  0  0  0  0  0  0  0  0
   -5.3229    0.2835   -0.8411 C   0  0  0  0  0  0  0  0  0  0  0  0
   -1.2930   -1.4470   -2.0360 H   0  0  0  0  0  0  0  0  0  0  0  0
   -0.0149    0.6619    1.4102 H   0  0  0  0  0  0  0  0  0  0  0  0
   -2.2775    1.4320    1.7951 H   0  0  0  0  0  0  0  0  0  0  0  0
   -4.6441    2.0608    1.9233 H   0  0  0  0  0  0  0  0  0  0  0  0
   -7.0243    2.4876    1.7662 H   0  0  0  0  0  0  0  0  0  0  0  0
   -7.2590    0.1159   -1.7065 H   0  0  0  0  0  0  0  0  0  0  0  0
   -8.7579    1.6368   -0.0078 C   0  0  0  0  0  0  0  0  0  0  0  0
   -9.2539    2.7575   -0.6261 C   0  0  0  0  0  0  0  0  0  0  0  0
  -10.6072    3.0230   -0.6045 C   0  0  0  0  0  0  0  0  0  0  0  0
  -11.4850    2.1755    0.0325 C   0  0  0  0  0  0  0  0  0  0  0  0
  -12.8378    2.4015    0.0818 C   0  0  0  0  0  0  0  0  0  0  0  0
  -13.7142    1.5549    0.7219 C   0  0  0  0  0  0  0  0  0  0  0  0
  -13.2524    0.4146    1.3561 C   0  0  0  0  0  0  0  0  0  0  0  0
  -14.1530   -0.4482    2.0001 C   0  0  0  0  0  0  0  0  0  0  0  0
  -13.6400   -1.5728    2.6074 C   0  0  0  0  0  0  0  0  0  0  0  0
  -12.2863   -1.8279    2.5755 C   0  0  0  0  0  0  0  0  0  0  0  0
  -11.4035   -0.9584    1.9299 C   0  0  0  0  0  0  0  0  0  0  0  0
  -10.0417   -1.2265    1.9042 C   0  0  0  0  0  0  0  0  0  0  0  0
   -9.1890   -0.3516    1.2575 C   0  0  0  0  0  0  0  0  0  0  0  0
   -9.6556    0.8004    0.6235 C   0  0  0  0  0  0  0  0  0  0  0  0
  -11.0164    1.0242    0.6720 C   0  0  0  0  0  0  0  0  0  0  0  0
  -11.8985    0.1722    1.3158 C   0  0  0  0  0  0  0  0  0  0  0  0
   -8.5595    3.4024   -1.1180 H   0  0  0  0  0  0  0  0  0  0  0  0
  -11.0256    3.9110   -1.0857 H   0  0  0  0  0  0  0  0  0  0  0  0
  -13.1862    3.3031   -0.4216 H   0  0  0  0  0  0  0  0  0  0  0  0
  -14.7757    1.7512    0.7436 H   0  0  0  0  0  0  0  0  0  0  0  0
  -14.3117   -2.2549    3.1130 H   0  0  0  0  0  0  0  0  0  0  0  0
  -11.9019   -2.7144    3.0610 H   0  0  0  0  0  0  0  0  0  0  0  0
   -9.6602   -2.0971    2.3781 H   0  0  0  0  0  0  0  0  0  0  0  0
   -8.1187   -0.5139    1.2069 H   0  0  0  0  0  0  0  0  0  0  0  0
  -15.5616   -0.0921    2.0032 C   0  0  0  0  0  0  0  0  0  0  0  0
  -16.1553    0.5902    3.0321 C   0  0  0  0  0  0  0  0  0  0  0  0
  -17.5069    0.8869    2.9775 C   0  0  0  0  0  0  0  0  0  0  0  0
  -18.2660    0.4925    1.8744 C   0  0  0  0  0  0  0  0  0  0  0  0
  -19.6092    0.7816    1.7927 C   0  0  0  0  0  0  0  0  0  0  0  0
  -20.3833    0.4108    0.7061 C   0  0  0  0  0  0  0  0  0  0  0  0
  -19.8231   -0.2744   -0.3514 C   0  0  0  0  0  0  0  0  0  0  0  0
  -20.5829   -0.6437   -1.4279 C   0  0  0  0  0  0  0  0  0  0  0  0
  -19.9605   -1.3433   -2.4741 C   0  0  0  0  0  0  0  0  0  0  0  0
  -18.6172   -1.6326   -2.3875 C   0  0  0  0  0  0  0  0  0  0  0  0
  -17.8583   -1.2530   -1.2937 C   0  0  0  0  0  0  0  0  0  0  0  0
  -16.5076   -1.5401   -1.2133 C   0  0  0  0  0  0  0  0  0  0  0  0
  -15.7502   -1.1647   -0.1386 C   0  0  0  0  0  0  0  0  0  0  0  0
  -16.3458   -0.4708    0.9192 C   0  0  0  0  0  0  0  0  0  0  0  0
  -17.6887   -0.1946    0.8264 C   0  0  0  0  0  0  0  0  0  0  0  0
  -18.4683   -0.5704   -0.2713 C   0  0  0  0  0  0  0  0  0  0  0  0
  -15.5714    0.9099    3.9115 H   0  0  0  0  0  0  0  0  0  0  0  0
  -18.0188    1.4281    3.7743 H   0  0  0  0  0  0  0  0  0  0  0  0
  -20.0655    1.3165    2.6089 H   0  0  0  0  0  0  0  0  0  0  0  0
  -21.4311    0.6556    0.7098 H   0  0  0  0  0  0  0  0  0  0  0  0
  -20.5535   -1.6407   -3.3286 H   0  0  0  0  0  0  0  0  0  0  0  0
  -18.1650   -2.1687   -3.2068 H   0  0  0  0  0  0  0  0  0  0  0  0
  -16.1013   -2.0823   -2.0654 H   0  0  0  0  0  0  0  0  0  0  0  0
  -14.6908   -1.3917   -0.0876 H   0  0  0  0  0  0  0  0  0  0  0  0
  -24.7796    3.6292   -1.6087 N   0  0  0  0  0  0  0  0  0  0  0  0
  -24.3483    2.5476   -1.6757 C   0  0  0  0  0  0  0  0  0  0  0  0
  -23.8335    1.2065   -1.7415 C   0  0  0  0  0  0  0  0  0  0  0  0
  -22.4964    0.9539   -1.5530 C   0  0  0  0  0  0  0  0  0  0  0  0
  -21.9950   -0.3363   -1.6119 C   0  0  0  0  0  0  0  0  0  0  0  0
  -22.8925   -1.3604   -1.8691 C   0  0  0  0  0  0  0  0  0  0  0  0
  -24.2118   -1.0801   -2.0520 C   0  0  0  0  0  0  0  0  0  0  0  0
  -24.7219    0.2040   -1.9946 C   0  0  0  0  0  0  0  0  0  0  0  0
  -21.8210    1.7796   -1.3567 H   0  0  0  0  0  0  0  0  0  0  0  0
  -22.4737   -2.3693   -1.9112 H   0  0  0  0  0  0  0  0  0  0  0  0
  -24.8760   -1.9119   -2.2487 H   0  0  0  0  0  0  0  0  0  0  0  0
   27.0272    0.2973   -0.4758 H   0  0  0  0  0  0  0  0  0  0  0  0
  -25.7708    0.4323   -2.1408 H   0  0  0  0  0  0  0  0  0  0  0  0
  1  2  2  0
  2  3  2  0
  2  4  1  0
  4  5  2  0
  5  6  1  0
  6  7  2  0
  7  8  1  0
  8  9  2  0
  9 10  1  0
 10 11  2  0
 11 12  1  0
 12 13  2  0
 13 14  1  0
 14 15  2  0
 15  2  1  0
  9  4  1  0
 15 10  1  0
  5 16  1  0
  7 17  1  0
  8 18  1  0
 11 19  1  0
 12 20  1  0
 14 21  1  0
 22 23  2  0
 23 24  1  0
 24 25  2  0
 25 26  1  0
 26 27  2  0
 27 28  1  0
 28 29  2  0
 29 30  1  0
 30 31  2  0
 31 32  1  0
 32 33  2  0
 33 34  1  0
 34 35  2  0
 35 36  1  0
 36 37  2  0
 35 22  1  0
 36 25  1  0
 37 28  1  0
 37 32  1  0
 23 38  1  0
 24 39  1  0
 26 40  1  0
 27 41  1  0
 30 42  1  0
 31 43  1  0
 33 44  1  0
 34 45  1  0
 46 47  2  0
 47 48  1  0
 48 49  2  0
 49 50  1  0
 50 51  2  0
 51 52  1  0
 52 53  2  0
 53 54  1  0
 54 55  2  0
 55 56  1  0
 56 57  2  0
 57 58  1  0
 58 59  2  0
 59 60  1  0
 60 61  2  0
 59 46  1  0
 60 49  1  0
 61 52  1  0
 61 56  1  0
 47 62  1  0
 48 63  1  0
 50 64  1  0
 51 65  1  0
 54 66  1  0
 55 67  1  0
 57 68  1  0
 58 69  1  0
 70 71  3  0
 71 72  1  0
 72 73  2  0
 73 74  1  0
 74 75  2  0
 75 76  1  0
 76 77  2  0
 77 72  1  0
 73 78  1  0
 75 79  1  0
 76 80  1  0
 81 82  2  0
 82 83  2  0
 82 84  1  0
 84 85  2  0
 85 86  1  0
 86 87  2  0
 87 88  1  0
 88 89  2  0
 89 90  1  0
 90 91  2  0
 91 92  1  0
 92 93  2  0
 93 94  1  0
 94 95  2  0
 95 82  1  0
 89 84  1  0
 95 90  1  0
 85 96  1  0
 87 97  1  0
 88 98  1  0
 91 99  1  0
 92100  1  0
 94101  1  0
102103  2  0
103104  1  0
104105  2  0
105106  1  0
106107  2  0
107108  1  0
108109  2  0
109110  1  0
110111  2  0
111112  1  0
112113  2  0
113114  1  0
114115  2  0
115116  1  0
116117  2  0
115102  1  0
116105  1  0
117108  1  0
117112  1  0
103118  1  0
104119  1  0
106120  1  0
107121  1  0
110122  1  0
111123  1  0
113124  1  0
114125  1  0
126127  2  0
127128  1  0
128129  2  0
129130  1  0
130131  2  0
131132  1  0
132133  2  0
133134  1  0
134135  2  0
135136  1  0
136137  2  0
137138  1  0
138139  2  0
139140  1  0
140141  2  0
139126  1  0
140129  1  0
141132  1  0
141136  1  0
127142  1  0
128143  1  0
130144  1  0
131145  1  0
134146  1  0
135147  1  0
137148  1  0
138149  1  0
150151  3  0
151152  1  0
152153  2  0
153154  1  0
154155  2  0
155156  1  0
156157  2  0
157152  1  0
153158  1  0
155159  1  0
156160  1  0
 13 22  1  0
 29 46  1  0
 53 74  1  0
 77 86  1  0
 93102  1  0
109126  1  0
133154  1  0
  6161  1  0
157162  1  0
M  END
