162

O         21.87560        1.17800       -2.37940
S         22.24940        1.66610       -1.03100
O         22.30110        3.16690       -0.95350
C         23.68440        0.93230       -0.38740
C         24.97930        0.96180       -0.84090
C         26.00150        0.31030       -0.16990
C         25.63710       -0.36470        0.97460
C         24.35530       -0.38680        1.41180
C         23.31280        0.26930        0.73990
C         21.92060        0.33210        1.06580
C         21.22640       -0.24540        2.15400
C         19.87740       -0.07810        2.29660
C         19.12840        0.64620        1.40830
C         19.77350        1.23250        0.32340
C         21.13710        1.04400        0.21000
H         25.26400        1.49620       -1.75010
H         26.42310       -0.89010        1.52430
H         24.17090       -0.95770        2.33510
H         21.75830       -0.83690        2.89410
H         19.37170       -0.53250        3.14000
H         19.24540        1.81120       -0.40080
C         17.69550        0.89250        1.53530
C         17.20150        1.73730        2.51800
C         15.86050        2.03130        2.60270
C         14.96490        1.48580        1.70160
C         13.61860        1.75500        1.75040
C         12.72270        1.19840        0.83310
C         13.16190        0.35500       -0.15870
C         12.24960       -0.20950       -1.05950
C         12.80040       -1.06720       -2.00610
C         14.14310       -1.34920       -2.06790
C         15.02160       -0.76940       -1.15930
C         16.36250       -1.06050       -1.22650
C         17.25600       -0.50550       -0.33300
C         16.77200        0.34920        0.63520
C         15.41900        0.64090        0.71340
C         14.51630        0.08530       -0.20400
H         17.90460        2.15710        3.21560
H         15.45260        2.69110        3.36210
H         13.23170        2.40570        2.50020
H         11.68450        1.43310        0.92600
H         12.10820       -1.51080       -2.70900
H         14.57700       -2.01500       -2.80190
H         16.76980       -1.72970       -1.97320
H         18.31390       -0.74620       -0.38100
C         10.84060        0.14760       -1.06240
C         10.44640        1.47440       -1.28300
C          9.13580        1.85910       -1.34680
C          8.14190        0.90370       -1.18720
C          6.80320        1.31990       -1.23320
C          5.80220        0.37660       -1.05390
C          6.11120       -0.93090       -0.83760
C          5.09530       -1.83860       -0.64150
C          5.45370       -3.15430       -0.40460
C          6.77870       -3.54820       -0.36290
C          7.80270       -2.63710       -0.55730
C          9.11100       -3.04730       -0.49020
C         10.11960       -2.10850       -0.66660
C          9.83060       -0.77050       -0.91020
C          8.48020       -0.40110       -0.97100
C          7.45560       -1.32730       -0.79480
H         11.23510        2.22540       -1.40650
H          8.80950        2.87500       -1.51500
H          6.56250        2.36110       -1.40510
H          4.81230        0.74520       -1.08710
H          4.65610       -3.87900       -0.25040
H          7.05760       -4.56960       -0.17850
H          9.39180       -4.06530       -0.30720
H         11.15550       -2.38400       -0.60480
N          0.25230       -2.07090        2.71560
C          0.84200       -1.79650        1.75610
C          1.58520       -1.47580        0.57560
C          2.91770       -1.78830        0.51280
C          3.68150       -1.49960       -0.64050
C          3.01100       -0.90260       -1.67180
C          1.65080       -0.58450       -1.60610
C          0.92390       -0.86360       -0.48550
H          3.45580       -2.26800        1.33280
H          3.56410       -0.66830       -2.57180
H          1.15700       -0.10530       -2.45550
O         -4.62990       -2.11030       -1.87710
S         -4.27840       -0.66520       -1.86640
O         -4.19980       -0.06990       -3.23970
C         -2.78980       -0.36380       -0.96100
C         -1.48840       -0.81730       -1.18680
C         -0.48450       -0.46750       -0.35210
C         -0.82130        0.36330        0.73360
C         -2.10060        0.79510        0.93570
C         -3.15090        0.43660        0.07410
C         -4.53930        0.79900        0.14980
C         -5.18470        1.59900        1.08900
C         -6.52510        1.85500        1.02520
C         -7.32160        1.33180        0.01930
C         -6.67500        0.54340       -0.90400
C         -5.32290        0.28350       -0.84110
H         -1.29300       -1.44700       -2.03600
H         -0.01490        0.66190        1.41020
H         -2.27750        1.43200        1.79510
H         -4.64410        2.06080        1.92330
H         -7.02430        2.48760        1.76620
H         -7.25900        0.11590       -1.70650
C         -8.75790        1.63680       -0.00780
C         -9.25390        2.75750       -0.62610
C        -10.60720        3.02300       -0.60450
C        -11.48500        2.17550        0.03250
C        -12.83780        2.40150        0.08180
C        -13.71420        1.55490        0.72190
C        -13.25240        0.41460        1.35610
C        -14.15300       -0.44820        2.00010
C        -13.64000       -1.57280        2.60740
C        -12.28630       -1.82790        2.57550
C        -11.40350       -0.95840        1.92990
C        -10.04170       -1.22650        1.90420
C         -9.18900       -0.35160        1.25750
C         -9.65560        0.80040        0.62350
C        -11.01640        1.02420        0.67200
C        -11.89850        0.17220        1.31580
H         -8.55950        3.40240       -1.11800
H        -11.02560        3.91100       -1.08570
H        -13.18620        3.30310       -0.42160
H        -14.77570        1.75120        0.74360
H        -14.31170       -2.25490        3.11300
H        -11.90190       -2.71440        3.06100
H         -9.66020       -2.09710        2.37810
H         -8.11870       -0.51390        1.20690
C        -15.56160       -0.09210        2.00320
C        -16.15530        0.59020        3.03210
C        -17.50690        0.88690        2.97750
C        -18.26600        0.49250        1.87440
C        -19.60920        0.78160        1.79270
C        -20.38330        0.41080        0.70610
C        -19.82310       -0.27440       -0.35140
C        -20.58290       -0.64370       -1.42790
C        -19.96050       -1.34330       -2.47410
C        -18.61720       -1.63260       -2.38750
C        -17.85830       -1.25300       -1.29370
C        -16.50760       -1.54010       -1.21330
C        -15.75020       -1.16470       -0.13860
C        -16.34580       -0.47080        0.91920
C        -17.68870       -0.19460        0.82640
C        -18.46830       -0.57040       -0.27130
H        -15.57140        0.90990        3.91150
H        -18.01880        1.42810        3.77430
H        -20.06550        1.31650        2.60890
H        -21.43110        0.65560        0.70980
H        -20.55350       -1.64070       -3.32860
H        -18.16500       -2.16870       -3.20680
H        -16.10130       -2.08230       -2.06540
H        -14.69080       -1.39170       -0.08760
N        -24.77960        3.62920       -1.60870
C        -24.34830        2.54760       -1.67570
C        -23.83350        1.20650       -1.74150
C        -22.49640        0.95390       -1.55300
C        -21.99500       -0.33630       -1.61190
C        -22.89250       -1.36040       -1.86910
C        -24.21180       -1.08010       -2.05200
C        -24.72190        0.20400       -1.99460
H        -21.82100        1.77960       -1.35670
H        -22.47370       -2.36930       -1.91120
H        -24.87600       -1.91190       -2.24870
H         27.02720        0.29730       -0.47580
H        -25.77080        0.43230       -2.14080
