130

C         20.81980       -0.86510        0.04900
C         20.73630        0.20080        0.91770
C         19.48120        0.60320        1.31430
C         18.31070       -0.01170        0.88260
C         17.08190        0.44050        1.31460
C         15.95310       -0.21110        0.85420
C         15.98220       -1.27060        0.00330
C         14.85320       -1.90030       -0.45990
C         15.03920       -2.97220       -1.37100
C         16.27160       -3.38650       -1.78310
C         17.37420       -2.73790       -1.29540
C         18.62940       -3.16420       -1.72100
C         19.77120       -2.56550       -1.28760
C         19.66050       -1.50750       -0.40650
C         18.42210       -1.07830        0.01310
C         17.26030       -1.68940       -0.41110
H         21.62290        0.71650        1.29070
H         19.39990        1.45020        2.00270
H         17.03340        1.27470        1.99150
H         14.97400        0.19790        1.16620
H         14.12170       -3.44170       -1.72240
H         16.37070       -4.19780       -2.46630
H         18.68230       -3.99910       -2.41000
H         20.76140       -2.87850       -1.59870
C         13.50640       -1.53150       -0.10020
C         13.03460       -1.30100        1.15820
N         11.73060       -1.06950        1.36520
C         10.84090       -1.05890        0.33770
C         11.31280       -1.29280       -0.91200
N         12.60670       -1.51870       -1.09960
H         13.70010       -1.33830        2.03490
H         10.62110       -1.33910       -1.77990
C          9.43710       -0.93620        0.69420
C          8.99640       -1.70370        1.79710
C          7.70600       -1.70420        2.22320
C          6.81000       -0.91290        1.53570
C          5.50540       -0.90090        1.92750
C          4.55710       -0.12530        1.26000
C          4.89470        0.65920        0.18640
C          3.97320        1.42790       -0.47020
C          4.43510        2.17930       -1.53390
C          5.75790        2.18450       -1.95050
C          6.65600        1.39860       -1.26650
C          7.96940        1.39690       -1.67740
C          8.91370        0.62060       -1.02910
C          8.51220       -0.15760        0.04150
C          7.16790       -0.13190        0.45260
C          6.23820        0.63770       -0.20560
H          9.74270       -2.30420        2.30860
H          7.36710       -2.30950        3.08180
H          5.21800       -1.51120        2.77690
H          3.55540       -0.20370        1.63410
H          3.78720        2.83040       -2.10710
H          6.05790        2.79390       -2.79220
H          8.28340        2.01670       -2.52410
H          9.94900        0.67340       -1.33510
C          2.56930        1.44870       -0.18470
C          1.64210        1.75410       -1.21950
N          0.32900        1.71670       -0.99840
C         -0.19500        1.40220        0.16820
C          0.72920        1.10290        1.19290
N          2.04790        1.13390        0.98830
H          2.06140        2.00130       -2.17430
H          0.34080        0.86080        2.18620
C         -1.59990        1.32500        0.52380
C         -1.98240        0.50750        1.60290
C         -3.30160        0.36970        2.01020
C         -4.26210        1.07220        1.31380
C         -5.57540        0.94800        1.67490
C         -6.59050        1.62250        0.99530
C         -6.29320        2.44390       -0.07150
C         -7.29320        3.10140       -0.77370
C         -6.92930        3.88780       -1.84720
C         -5.59800        4.01850       -2.20940
C         -4.62820        3.34720       -1.48830
C         -3.33680        3.50770       -1.91200
C         -2.31720        2.82090       -1.21330
C         -2.58710        2.00700       -0.14000
C         -3.93230        1.88540        0.25110
C         -4.94610        2.54240       -0.40440
H         -1.22140       -0.05040        2.10760
H         -3.50340       -0.28440        2.84550
H         -5.85030        0.30520        2.51080
H         -7.61360        1.50780        1.28850
H         -7.70310        4.40990       -2.40850
H         -5.34850        4.65080       -3.05960
H         -3.04650        4.13500       -2.75660
H         -1.31170        2.96960       -1.54490
C         -8.69560        2.88880       -0.45290
C         -9.45020        2.23610       -1.43810
N        -10.71180        1.89990       -1.21400
C        -11.35160        2.14240       -0.08190
C        -10.59900        2.79860        0.90380
N         -9.32000        3.14430        0.69330
H         -9.01610        1.99940       -2.39380
H        -11.08250        3.02180        1.83890
C        -12.70320        1.70380        0.19580
C        -13.50520        2.55830        0.95190
C        -14.80200        2.21960        1.30810
C        -15.30300        1.00650        0.90120
C        -16.59570        0.65860        1.25860
C        -17.12850       -0.55710        0.87400
C        -16.37180       -1.42200        0.13150
C        -16.82150       -2.65530       -0.25060
C        -16.03970       -3.57730       -0.97070
C        -14.76130       -3.20460       -1.30610
C        -14.30650       -1.96770       -0.93170
C        -12.99450       -1.67530       -1.30040
C        -12.49910       -0.42570       -0.91160
C        -13.22970        0.49530       -0.19770
C        -14.54090        0.14040        0.15600
C        -15.05980       -1.06430       -0.22850
H        -13.06850        3.49710        1.25430
H        -15.39980        2.91890        1.90260
H        -17.24200        1.31160        1.84920
H        -18.11230       -0.82210        1.20080
H        -16.46040       -4.53990       -1.23320
H        -14.14970       -3.90620       -1.86110
H        -12.38220       -2.37260       -1.85480
H        -11.47250       -0.19570       -1.17270
C        -18.18190       -3.12360        0.02800
C        -19.30310       -2.39610       -0.23710
N        -20.51710       -2.91100       -0.06650
C        -20.61700       -4.18980        0.38050
C        -19.49800       -4.93160        0.65070
N        -18.28440       -4.41830        0.48130
H        -19.22910       -1.40140       -0.62230
H        -19.58950       -5.95120        1.01060
H         21.77710       -1.21570       -0.29430
H        -21.59000       -4.66180        0.53410
