124

O        -18.86900        2.17540       -1.06650
S        -18.86080        1.21940        0.08590
O        -18.76750        1.88880        1.41280
C        -20.27470        0.14970       -0.00430
C        -21.61910        0.46670        0.05600
C        -22.52050       -0.58960       -0.02700
C        -22.04820       -1.86340       -0.16090
C        -20.72730       -2.14210       -0.21820
C        -19.75220       -1.10330       -0.13850
C        -18.33520       -1.20580       -0.20360
C        -17.54380       -2.36970       -0.37550
C        -16.17860       -2.27040       -0.45380
C        -15.51250       -1.03470       -0.36830
C        -16.25750        0.07760       -0.20180
C        -17.64440       -0.02980       -0.12410
H        -21.90060        1.49360        0.16160
H        -22.77480       -2.67050       -0.22190
H        -20.42340       -3.17310       -0.32950
H        -18.00790       -3.35090       -0.44930
H        -15.60560       -3.17910       -0.58420
H        -15.78040        1.03930       -0.12690
C        -14.07220       -1.05560       -0.56370
C        -13.58190       -1.60470       -1.76870
C        -12.25460       -1.62650       -2.04060
C        -11.32540       -1.11470       -1.15150
C         -9.99420       -1.13550       -1.43260
C         -9.04980       -0.62000       -0.54280
C         -9.45540       -0.08450        0.64060
C         -8.54410        0.43900        1.52680
C         -9.06590        0.99210        2.70550
C        -10.38790        1.02920        3.00280
C        -11.30550        0.49760        2.11170
C        -12.64330        0.52400        2.38230
C        -13.54580        0.00720        1.49920
C        -13.13880       -0.55550        0.30220
C        -11.76380       -0.57510        0.02840
C        -10.84510       -0.05520        0.94060
H        -14.28830       -2.00800       -2.46700
H        -11.83700       -2.03890       -2.96250
H         -9.65710       -1.56160       -2.37080
H         -8.02720       -0.60810       -0.83400
H         -8.35780        1.41040        3.41230
H        -10.79980        1.45760        3.91850
H        -12.96950        0.96450        3.30980
H        -14.61300        0.00200        1.70420
C         -7.11580        0.47960        1.31860
C         -6.37120       -0.57620        0.92510
N         -5.00100       -0.52810        0.82740
C         -4.35240        0.58470        1.12800
C         -5.06560        1.67960        1.53590
N         -6.41220        1.62430        1.62720
H         -6.84320       -1.54680        0.70190
H         -4.55410        2.61880        1.79600
C         -2.89310        0.70590        1.03450
C         -2.12700       -0.36280        0.60880
N         -0.79330       -0.30400        0.49590
C         -0.11620        0.85190        0.80880
C         -0.86820        1.90930        1.22960
N         -2.23520        1.82450        1.33600
H         -2.67250       -1.28320        0.35960
H         -0.37860        2.84900        1.49400
O          4.33270       -1.81670       -1.74620
S          4.49470       -1.51200       -0.28140
O          4.42040       -2.72150        0.57230
C          3.39470       -0.24220        0.18980
C          2.04830       -0.23790        0.29710
C          1.32640        0.88870        0.69130
C          2.08300        1.99320        0.96140
C          3.44200        1.99020        0.85440
C          4.16140        0.85070        0.45890
C          5.57460        0.65410        0.35300
C          6.61440        1.57180        0.62090
C          7.91870        1.17340        0.52160
C          8.32090       -0.09150        0.17140
C          7.31240       -0.99420       -0.09710
C          5.98330       -0.60080       -0.00000
H          1.41930       -1.12050        0.08230
H          1.58700        2.92800        1.28010
H          3.95220        2.93500        1.09580
H          6.37500        2.59640        0.90530
H          8.73560        1.88150        0.72560
H          7.53730       -1.99100       -0.37610
C          9.73620       -0.50600        0.15370
C         10.06440       -1.56070        1.03600
C         11.34720       -1.98470        1.20710
C         12.33640       -1.33380        0.47080
C         13.62770       -1.73680        0.65560
C         14.62310       -1.07870       -0.05840
C         14.38420       -0.05950       -0.93200
C         15.41390        0.55580       -1.58970
C         15.06420        1.61620       -2.45240
C         13.77360        2.01610       -2.63280
C         12.75920        1.36310       -1.94560
C         11.44120        1.76840       -2.10020
C         10.43910        1.13380       -1.39920
C         10.71390        0.10400       -0.54800
C         12.03020       -0.31010       -0.39160
C         13.04990        0.32520       -1.09260
H          9.24900       -2.04160        1.59500
H         11.63530       -2.78400        1.87270
H         13.85440       -2.53180        1.33050
H         15.61390       -1.39140        0.15450
H         15.86390        2.11720       -2.98310
H         13.50640        2.84040       -3.30480
H         11.24520        2.58670       -2.78240
H          9.41770        1.44500       -1.53390
C         16.82610        0.27370       -1.40000
C         17.46440       -0.92600       -1.36210
N         18.82520       -1.01360       -1.21310
C         19.61160        0.05760       -1.09780
C         18.97220        1.28540       -1.14060
N         17.66060        1.37820       -1.28390
H         16.90140       -1.84370       -1.49430
H         19.60990        2.14850       -1.05280
C         21.05160       -0.02210       -0.87860
C         21.77170       -1.18040       -0.72070
N         23.09380       -1.18310       -0.47930
C         23.77940       -0.02700       -0.38090
C         23.07970        1.15160       -0.53630
N         21.75100        1.12380       -0.77800
H         21.22320       -2.12980       -0.79860
H         23.61940        2.07670       -0.46130
H        -23.56980       -0.38000        0.01880
H         24.83080       -0.07140       -0.19010
