
     RDKit          3D

124141  0  0  0  0  0  0  0  0999 V2000
  -18.8690    2.1754   -1.0665 O   0  0  0  0  0  0  0  0  0  0  0  0
  -18.8608    1.2194    0.0859 S   0  0  0  0  0  0  0  0  0  0  0  0
  -18.7675    1.8888    1.4128 O   0  0  0  0  0  0  0  0  0  0  0  0
  -20.2747    0.1497   -0.0043 C   0  0  0  0  0  0  0  0  0  0  0  0
  -21.6191    0.4667    0.0560 C   0  0  0  0  0  0  0  0  0  0  0  0
  -22.5205   -0.5896   -0.0270 C   0  0  0  0  0  0  0  0  0  0  0  0
  -22.0482   -1.8634   -0.1609 C   0  0  0  0  0  0  0  0  0  0  0  0
  -20.7273   -2.1421   -0.2182 C   0  0  0  0  0  0  0  0  0  0  0  0
  -19.7522   -1.1033   -0.1385 C   0  0  0  0  0  0  0  0  0  0  0  0
  -18.3352   -1.2058   -0.2036 C   0  0  0  0  0  0  0  0  0  0  0  0
  -17.5438   -2.3697   -0.3755 C   0  0  0  0  0  0  0  0  0  0  0  0
  -16.1786   -2.2704   -0.4538 C   0  0  0  0  0  0  0  0  0  0  0  0
  -15.5125   -1.0347   -0.3683 C   0  0  0  0  0  0  0  0  0  0  0  0
  -16.2575    0.0776   -0.2018 C   0  0  0  0  0  0  0  0  0  0  0  0
  -17.6444   -0.0298   -0.1241 C   0  0  0  0  0  0  0  0  0  0  0  0
  -21.9006    1.4936    0.1616 H   0  0  0  0  0  0  0  0  0  0  0  0
  -22.7748   -2.6705   -0.2219 H   0  0  0  0  0  0  0  0  0  0  0  0
  -20.4234   -3.1731   -0.3295 H   0  0  0  0  0  0  0  0  0  0  0  0
  -18.0079   -3.3509   -0.4493 H   0  0  0  0  0  0  0  0  0  0  0  0
  -15.6056   -3.1791   -0.5842 H   0  0  0  0  0  0  0  0  0  0  0  0
  -15.7804    1.0393   -0.1269 H   0  0  0  0  0  0  0  0  0  0  0  0
  -14.0722   -1.0556   -0.5637 C   0  0  0  0  0  0  0  0  0  0  0  0
  -13.5819   -1.6047   -1.7687 C   0  0  0  0  0  0  0  0  0  0  0  0
  -12.2546   -1.6265   -2.0406 C   0  0  0  0  0  0  0  0  0  0  0  0
  -11.3254   -1.1147   -1.1515 C   0  0  0  0  0  0  0  0  0  0  0  0
   -9.9942   -1.1355   -1.4326 C   0  0  0  0  0  0  0  0  0  0  0  0
   -9.0498   -0.6200   -0.5428 C   0  0  0  0  0  0  0  0  0  0  0  0
   -9.4554   -0.0845    0.6406 C   0  0  0  0  0  0  0  0  0  0  0  0
   -8.5441    0.4390    1.5268 C   0  0  0  0  0  0  0  0  0  0  0  0
   -9.0659    0.9921    2.7055 C   0  0  0  0  0  0  0  0  0  0  0  0
  -10.3879    1.0292    3.0028 C   0  0  0  0  0  0  0  0  0  0  0  0
  -11.3055    0.4976    2.1117 C   0  0  0  0  0  0  0  0  0  0  0  0
  -12.6433    0.5240    2.3823 C   0  0  0  0  0  0  0  0  0  0  0  0
  -13.5458    0.0072    1.4992 C   0  0  0  0  0  0  0  0  0  0  0  0
  -13.1388   -0.5555    0.3022 C   0  0  0  0  0  0  0  0  0  0  0  0
  -11.7638   -0.5751    0.0284 C   0  0  0  0  0  0  0  0  0  0  0  0
  -10.8451   -0.0552    0.9406 C   0  0  0  0  0  0  0  0  0  0  0  0
  -14.2883   -2.0080   -2.4670 H   0  0  0  0  0  0  0  0  0  0  0  0
  -11.8370   -2.0389   -2.9625 H   0  0  0  0  0  0  0  0  0  0  0  0
   -9.6571   -1.5616   -2.3708 H   0  0  0  0  0  0  0  0  0  0  0  0
   -8.0272   -0.6081   -0.8340 H   0  0  0  0  0  0  0  0  0  0  0  0
   -8.3578    1.4104    3.4123 H   0  0  0  0  0  0  0  0  0  0  0  0
  -10.7998    1.4576    3.9185 H   0  0  0  0  0  0  0  0  0  0  0  0
  -12.9695    0.9645    3.3098 H   0  0  0  0  0  0  0  0  0  0  0  0
  -14.6130    0.0020    1.7042 H   0  0  0  0  0  0  0  0  0  0  0  0
   -7.1158    0.4796    1.3186 C   0  0  0  0  0  0  0  0  0  0  0  0
   -6.3712   -0.5762    0.9251 C   0  0  0  0  0  0  0  0  0  0  0  0
   -5.0010   -0.5281    0.8274 N   0  0  0  0  0  0  0  0  0  0  0  0
   -4.3524    0.5847    1.1280 C   0  0  0  0  0  0  0  0  0  0  0  0
   -5.0656    1.6796    1.5359 C   0  0  0  0  0  0  0  0  0  0  0  0
   -6.4122    1.6243    1.6272 N   0  0  0  0  0  0  0  0  0  0  0  0
   -6.8432   -1.5468    0.7019 H   0  0  0  0  0  0  0  0  0  0  0  0
   -4.5541    2.6188    1.7960 H   0  0  0  0  0  0  0  0  0  0  0  0
   -2.8931    0.7059    1.0345 C   0  0  0  0  0  0  0  0  0  0  0  0
   -2.1270   -0.3628    0.6088 C   0  0  0  0  0  0  0  0  0  0  0  0
   -0.7933   -0.3040    0.4959 N   0  0  0  0  0  0  0  0  0  0  0  0
   -0.1162    0.8519    0.8088 C   0  0  0  0  0  0  0  0  0  0  0  0
   -0.8682    1.9093    1.2296 C   0  0  0  0  0  0  0  0  0  0  0  0
   -2.2352    1.8245    1.3360 N   0  0  0  0  0  0  0  0  0  0  0  0
   -2.6725   -1.2832    0.3596 H   0  0  0  0  0  0  0  0  0  0  0  0
   -0.3786    2.8490    1.4940 H   0  0  0  0  0  0  0  0  0  0  0  0
    4.3327   -1.8167   -1.7462 O   0  0  0  0  0  0  0  0  0  0  0  0
    4.4947   -1.5120   -0.2814 S   0  0  0  0  0  0  0  0  0  0  0  0
    4.4204   -2.7215    0.5723 O   0  0  0  0  0  0  0  0  0  0  0  0
    3.3947   -0.2422    0.1898 C   0  0  0  0  0  0  0  0  0  0  0  0
    2.0483   -0.2379    0.2971 C   0  0  0  0  0  0  0  0  0  0  0  0
    1.3264    0.8887    0.6913 C   0  0  0  0  0  0  0  0  0  0  0  0
    2.0830    1.9932    0.9614 C   0  0  0  0  0  0  0  0  0  0  0  0
    3.4420    1.9902    0.8544 C   0  0  0  0  0  0  0  0  0  0  0  0
    4.1614    0.8507    0.4589 C   0  0  0  0  0  0  0  0  0  0  0  0
    5.5746    0.6541    0.3530 C   0  0  0  0  0  0  0  0  0  0  0  0
    6.6144    1.5718    0.6209 C   0  0  0  0  0  0  0  0  0  0  0  0
    7.9187    1.1734    0.5216 C   0  0  0  0  0  0  0  0  0  0  0  0
    8.3209   -0.0915    0.1714 C   0  0  0  0  0  0  0  0  0  0  0  0
    7.3124   -0.9942   -0.0971 C   0  0  0  0  0  0  0  0  0  0  0  0
    5.9833   -0.6008   -0.0000 C   0  0  0  0  0  0  0  0  0  0  0  0
    1.4193   -1.1205    0.0823 H   0  0  0  0  0  0  0  0  0  0  0  0
    1.5870    2.9280    1.2801 H   0  0  0  0  0  0  0  0  0  0  0  0
    3.9522    2.9350    1.0958 H   0  0  0  0  0  0  0  0  0  0  0  0
    6.3750    2.5964    0.9053 H   0  0  0  0  0  0  0  0  0  0  0  0
    8.7356    1.8815    0.7256 H   0  0  0  0  0  0  0  0  0  0  0  0
    7.5373   -1.9910   -0.3761 H   0  0  0  0  0  0  0  0  0  0  0  0
    9.7362   -0.5060    0.1537 C   0  0  0  0  0  0  0  0  0  0  0  0
   10.0644   -1.5607    1.0360 C   0  0  0  0  0  0  0  0  0  0  0  0
   11.3472   -1.9847    1.2071 C   0  0  0  0  0  0  0  0  0  0  0  0
   12.3364   -1.3338    0.4708 C   0  0  0  0  0  0  0  0  0  0  0  0
   13.6277   -1.7368    0.6556 C   0  0  0  0  0  0  0  0  0  0  0  0
   14.6231   -1.0787   -0.0584 C   0  0  0  0  0  0  0  0  0  0  0  0
   14.3842   -0.0595   -0.9320 C   0  0  0  0  0  0  0  0  0  0  0  0
   15.4139    0.5558   -1.5897 C   0  0  0  0  0  0  0  0  0  0  0  0
   15.0642    1.6162   -2.4524 C   0  0  0  0  0  0  0  0  0  0  0  0
   13.7736    2.0161   -2.6328 C   0  0  0  0  0  0  0  0  0  0  0  0
   12.7592    1.3631   -1.9456 C   0  0  0  0  0  0  0  0  0  0  0  0
   11.4412    1.7684   -2.1002 C   0  0  0  0  0  0  0  0  0  0  0  0
   10.4391    1.1338   -1.3992 C   0  0  0  0  0  0  0  0  0  0  0  0
   10.7139    0.1040   -0.5480 C   0  0  0  0  0  0  0  0  0  0  0  0
   12.0302   -0.3101   -0.3916 C   0  0  0  0  0  0  0  0  0  0  0  0
   13.0499    0.3252   -1.0926 C   0  0  0  0  0  0  0  0  0  0  0  0
    9.2490   -2.0416    1.5950 H   0  0  0  0  0  0  0  0  0  0  0  0
   11.6353   -2.7840    1.8727 H   0  0  0  0  0  0  0  0  0  0  0  0
   13.8544   -2.5318    1.3305 H   0  0  0  0  0  0  0  0  0  0  0  0
   15.6139   -1.3914    0.1545 H   0  0  0  0  0  0  0  0  0  0  0  0
   15.8639    2.1172   -2.9831 H   0  0  0  0  0  0  0  0  0  0  0  0
   13.5064    2.8404   -3.3048 H   0  0  0  0  0  0  0  0  0  0  0  0
   11.2452    2.5867   -2.7824 H   0  0  0  0  0  0  0  0  0  0  0  0
    9.4177    1.4450   -1.5339 H   0  0  0  0  0  0  0  0  0  0  0  0
   16.8261    0.2737   -1.4000 C   0  0  0  0  0  0  0  0  0  0  0  0
   17.4644   -0.9260   -1.3621 C   0  0  0  0  0  0  0  0  0  0  0  0
   18.8252   -1.0136   -1.2131 N   0  0  0  0  0  0  0  0  0  0  0  0
   19.6116    0.0576   -1.0978 C   0  0  0  0  0  0  0  0  0  0  0  0
   18.9722    1.2854   -1.1406 C   0  0  0  0  0  0  0  0  0  0  0  0
   17.6606    1.3782   -1.2839 N   0  0  0  0  0  0  0  0  0  0  0  0
   16.9014   -1.8437   -1.4943 H   0  0  0  0  0  0  0  0  0  0  0  0
   19.6099    2.1485   -1.0528 H   0  0  0  0  0  0  0  0  0  0  0  0
   21.0516   -0.0221   -0.8786 C   0  0  0  0  0  0  0  0  0  0  0  0
   21.7717   -1.1804   -0.7207 C   0  0  0  0  0  0  0  0  0  0  0  0
   23.0938   -1.1831   -0.4793 N   0  0  0  0  0  0  0  0  0  0  0  0
   23.7794   -0.0270   -0.3809 C   0  0  0  0  0  0  0  0  0  0  0  0
   23.0797    1.1516   -0.5363 C   0  0  0  0  0  0  0  0  0  0  0  0
   21.7510    1.1238   -0.7780 N   0  0  0  0  0  0  0  0  0  0  0  0
   21.2232   -2.1298   -0.7986 H   0  0  0  0  0  0  0  0  0  0  0  0
   23.6194    2.0767   -0.4613 H   0  0  0  0  0  0  0  0  0  0  0  0
  -23.5698   -0.3800    0.0188 H   0  0  0  0  0  0  0  0  0  0  0  0
   24.8308   -0.0714   -0.1901 H   0  0  0  0  0  0  0  0  0  0  0  0
  1  2  2  0
  2  3  2  0
  2  4  1  0
  4  5  2  0
  5  6  1  0
  6  7  2  0
  7  8  1  0
  8  9  2  0
  9 10  1  0
 10 11  2  0
 11 12  1  0
 12 13  2  0
 13 14  1  0
 14 15  2  0
 15  2  1  0
  9  4  1  0
 15 10  1  0
  5 16  1  0
  7 17  1  0
  8 18  1  0
 11 19  1  0
 12 20  1  0
 14 21  1  0
 22 23  2  0
 23 24  1  0
 24 25  2  0
 25 26  1  0
 26 27  2  0
 27 28  1  0
 28 29  2  0
 29 30  1  0
 30 31  2  0
 31 32  1  0
 32 33  2  0
 33 34  1  0
 34 35  2  0
 35 36  1  0
 36 37  2  0
 35 22  1  0
 36 25  1  0
 37 28  1  0
 37 32  1  0
 23 38  1  0
 24 39  1  0
 26 40  1  0
 27 41  1  0
 30 42  1  0
 31 43  1  0
 33 44  1  0
 34 45  1  0
 46 47  2  0
 47 48  1  0
 48 49  2  0
 49 50  1  0
 50 51  2  0
 51 46  1  0
 47 52  1  0
 50 53  1  0
 54 55  2  0
 55 56  1  0
 56 57  2  0
 57 58  1  0
 58 59  2  0
 59 54  1  0
 55 60  1  0
 58 61  1  0
 62 63  2  0
 63 64  2  0
 63 65  1  0
 65 66  2  0
 66 67  1  0
 67 68  2  0
 68 69  1  0
 69 70  2  0
 70 71  1  0
 71 72  2  0
 72 73  1  0
 73 74  2  0
 74 75  1  0
 75 76  2  0
 76 63  1  0
 70 65  1  0
 76 71  1  0
 66 77  1  0
 68 78  1  0
 69 79  1  0
 72 80  1  0
 73 81  1  0
 75 82  1  0
 83 84  2  0
 84 85  1  0
 85 86  2  0
 86 87  1  0
 87 88  2  0
 88 89  1  0
 89 90  2  0
 90 91  1  0
 91 92  2  0
 92 93  1  0
 93 94  2  0
 94 95  1  0
 95 96  2  0
 96 97  1  0
 97 98  2  0
 96 83  1  0
 97 86  1  0
 98 89  1  0
 98 93  1  0
 84 99  1  0
 85100  1  0
 87101  1  0
 88102  1  0
 91103  1  0
 92104  1  0
 94105  1  0
 95106  1  0
107108  2  0
108109  1  0
109110  2  0
110111  1  0
111112  2  0
112107  1  0
108113  1  0
111114  1  0
115116  2  0
116117  1  0
117118  2  0
118119  1  0
119120  2  0
120115  1  0
116121  1  0
119122  1  0
 13 22  1  0
 29 46  1  0
 49 54  1  0
 57 67  1  0
 74 83  1  0
 90107  1  0
110115  1  0
  6123  1  0
118124  1  0
M  END
