
     RDKit          3D

124139  0  0  0  0  0  0  0  0999 V2000
   20.4576    0.8907   -3.1065 O   0  0  0  0  0  0  0  0  0  0  0  0
   20.5913    1.5052   -1.7662 S   0  0  0  0  0  0  0  0  0  0  0  0
   20.6691    3.0066   -1.8205 O   0  0  0  0  0  0  0  0  0  0  0  0
   21.9671    0.8377   -0.9068 C   0  0  0  0  0  0  0  0  0  0  0  0
   23.3217    0.8431   -1.2054 C   0  0  0  0  0  0  0  0  0  0  0  0
   24.1791    0.2344   -0.3285 C   0  0  0  0  0  0  0  0  0  0  0  0
   23.7251   -0.3734    0.8270 C   0  0  0  0  0  0  0  0  0  0  0  0
   22.3814   -0.3548    1.0815 C   0  0  0  0  0  0  0  0  0  0  0  0
   21.4473    0.2548    0.2190 C   0  0  0  0  0  0  0  0  0  0  0  0
   20.0278    0.3274    0.3634 C   0  0  0  0  0  0  0  0  0  0  0  0
   19.2127   -0.1821    1.3926 C   0  0  0  0  0  0  0  0  0  0  0  0
   17.8569   -0.0385    1.3761 C   0  0  0  0  0  0  0  0  0  0  0  0
   17.2012    0.6184    0.3428 C   0  0  0  0  0  0  0  0  0  0  0  0
   17.9689    1.1141   -0.6527 C   0  0  0  0  0  0  0  0  0  0  0  0
   19.3590    0.9724   -0.6440 C   0  0  0  0  0  0  0  0  0  0  0  0
   23.6190    1.3299   -2.1203 H   0  0  0  0  0  0  0  0  0  0  0  0
   24.4207   -0.8615    1.5279 H   0  0  0  0  0  0  0  0  0  0  0  0
   22.0711   -0.8471    2.0080 H   0  0  0  0  0  0  0  0  0  0  0  0
   19.6426   -0.7130    2.2468 H   0  0  0  0  0  0  0  0  0  0  0  0
   17.2722   -0.4474    2.1841 H   0  0  0  0  0  0  0  0  0  0  0  0
   17.5362    1.6275   -1.4725 H   0  0  0  0  0  0  0  0  0  0  0  0
   12.7358    1.0289    4.2027 N   0  0  0  0  0  0  0  0  0  0  0  0
   13.1792    0.9585    3.1209 C   0  0  0  0  0  0  0  0  0  0  0  0
   13.7530    0.8646    1.7982 C   0  0  0  0  0  0  0  0  0  0  0  0
   15.1444    0.8090    1.6672 C   0  0  0  0  0  0  0  0  0  0  0  0
   15.7390    0.7114    0.4240 C   0  0  0  0  0  0  0  0  0  0  0  0
   14.9109    0.6723   -0.6757 C   0  0  0  0  0  0  0  0  0  0  0  0
   13.5387    0.7262   -0.5509 C   0  0  0  0  0  0  0  0  0  0  0  0
   12.9252    0.8246    0.7060 C   0  0  0  0  0  0  0  0  0  0  0  0
   15.7603    0.8448    2.5496 H   0  0  0  0  0  0  0  0  0  0  0  0
   15.3708    0.5968   -1.6513 H   0  0  0  0  0  0  0  0  0  0  0  0
   12.8601    0.6978   -1.3805 H   0  0  0  0  0  0  0  0  0  0  0  0
    8.2104   -1.0873   -1.9278 O   0  0  0  0  0  0  0  0  0  0  0  0
    8.1428   -1.1690   -0.4289 S   0  0  0  0  0  0  0  0  0  0  0  0
    8.2990   -2.5542    0.0841 O   0  0  0  0  0  0  0  0  0  0  0  0
    9.3556   -0.0792    0.2612 C   0  0  0  0  0  0  0  0  0  0  0  0
   10.7379   -0.1015    0.1821 C   0  0  0  0  0  0  0  0  0  0  0  0
   11.4774    0.8772    0.8264 C   0  0  0  0  0  0  0  0  0  0  0  0
   10.7893    1.8280    1.5160 C   0  0  0  0  0  0  0  0  0  0  0  0
    9.4346    1.8405    1.5874 C   0  0  0  0  0  0  0  0  0  0  0  0
    8.6441    0.8639    0.9476 C   0  0  0  0  0  0  0  0  0  0  0  0
    7.2191    0.7153    0.9150 C   0  0  0  0  0  0  0  0  0  0  0  0
    6.2357    1.5211    1.5087 C   0  0  0  0  0  0  0  0  0  0  0  0
    4.9147    1.2380    1.3718 C   0  0  0  0  0  0  0  0  0  0  0  0
    4.4415    0.1576    0.6530 C   0  0  0  0  0  0  0  0  0  0  0  0
    5.4086   -0.6301    0.0721 C   0  0  0  0  0  0  0  0  0  0  0  0
    6.7509   -0.3455    0.2087 C   0  0  0  0  0  0  0  0  0  0  0  0
   11.2003   -0.8852   -0.3819 H   0  0  0  0  0  0  0  0  0  0  0  0
   11.3524    2.5974    2.0159 H   0  0  0  0  0  0  0  0  0  0  0  0
    8.9652    2.6367    2.1652 H   0  0  0  0  0  0  0  0  0  0  0  0
    6.4930    2.4033    2.1030 H   0  0  0  0  0  0  0  0  0  0  0  0
    4.1413    1.8692    1.8359 H   0  0  0  0  0  0  0  0  0  0  0  0
    5.1108   -1.4937   -0.5087 H   0  0  0  0  0  0  0  0  0  0  0  0
    3.0130   -0.0702    0.5282 C   0  0  0  0  0  0  0  0  0  0  0  0
    2.5173   -1.1779   -0.1208 C   0  0  0  0  0  0  0  0  0  0  0  0
    1.1845   -1.3893   -0.2360 N   0  0  0  0  0  0  0  0  0  0  0  0
    0.2772   -0.5342    0.2740 C   0  0  0  0  0  0  0  0  0  0  0  0
    0.7813    0.5719    0.9235 C   0  0  0  0  0  0  0  0  0  0  0  0
    2.1096    0.7785    1.0358 N   0  0  0  0  0  0  0  0  0  0  0  0
    3.1940   -1.9067   -0.5529 H   0  0  0  0  0  0  0  0  0  0  0  0
    0.0707    1.2864    1.3536 H   0  0  0  0  0  0  0  0  0  0  0  0
   -5.0068    1.9518   -0.0099 O   0  0  0  0  0  0  0  0  0  0  0  0
   -4.9096    0.6652    0.7511 S   0  0  0  0  0  0  0  0  0  0  0  0
   -5.0688    0.8557    2.2307 O   0  0  0  0  0  0  0  0  0  0  0  0
   -3.4844   -0.2372    0.3455 C   0  0  0  0  0  0  0  0  0  0  0  0
   -2.1522    0.0566    0.5184 C   0  0  0  0  0  0  0  0  0  0  0  0
   -1.1519   -0.7991    0.1165 C   0  0  0  0  0  0  0  0  0  0  0  0
   -1.5610   -1.9714   -0.4701 C   0  0  0  0  0  0  0  0  0  0  0  0
   -2.8740   -2.2623   -0.6403 C   0  0  0  0  0  0  0  0  0  0  0  0
   -3.8968   -1.3975   -0.2356 C   0  0  0  0  0  0  0  0  0  0  0  0
   -5.3225   -1.5389   -0.3599 C   0  0  0  0  0  0  0  0  0  0  0  0
   -6.0598   -2.5971   -0.9141 C   0  0  0  0  0  0  0  0  0  0  0  0
   -7.4315   -2.5665   -0.9640 C   0  0  0  0  0  0  0  0  0  0  0  0
   -8.1708   -1.5122   -0.4820 C   0  0  0  0  0  0  0  0  0  0  0  0
   -7.4549   -0.4697    0.0651 C   0  0  0  0  0  0  0  0  0  0  0  0
   -6.0693   -0.5027    0.1150 C   0  0  0  0  0  0  0  0  0  0  0  0
   -1.8539    0.9988    0.9907 H   0  0  0  0  0  0  0  0  0  0  0  0
   -0.7880   -2.6594   -0.7933 H   0  0  0  0  0  0  0  0  0  0  0  0
   -3.0944   -3.2287   -1.1212 H   0  0  0  0  0  0  0  0  0  0  0  0
   -5.5390   -3.4770   -1.3223 H   0  0  0  0  0  0  0  0  0  0  0  0
   -7.9685   -3.4164   -1.4061 H   0  0  0  0  0  0  0  0  0  0  0  0
   -7.9683    0.3943    0.4638 H   0  0  0  0  0  0  0  0  0  0  0  0
  -13.1607   -4.7268   -0.1391 N   0  0  0  0  0  0  0  0  0  0  0  0
  -12.5661   -3.7485   -0.2928 C   0  0  0  0  0  0  0  0  0  0  0  0
  -11.8104   -2.5370   -0.4539 C   0  0  0  0  0  0  0  0  0  0  0  0
  -10.4063   -2.5703   -0.3992 C   0  0  0  0  0  0  0  0  0  0  0  0
   -9.6310   -1.4499   -0.5212 C   0  0  0  0  0  0  0  0  0  0  0  0
  -10.2782   -0.2314   -0.7072 C   0  0  0  0  0  0  0  0  0  0  0  0
  -11.6445   -0.1990   -0.7612 C   0  0  0  0  0  0  0  0  0  0  0  0
  -12.4476   -1.3448   -0.6371 C   0  0  0  0  0  0  0  0  0  0  0  0
   -9.9179   -3.5109   -0.2548 H   0  0  0  0  0  0  0  0  0  0  0  0
   -9.6487    0.6388   -0.7999 H   0  0  0  0  0  0  0  0  0  0  0  0
  -12.1342    0.7594   -0.9065 H   0  0  0  0  0  0  0  0  0  0  0  0
  -16.3703    2.7251    0.2971 O   0  0  0  0  0  0  0  0  0  0  0  0
  -16.8121    1.3746    0.7185 S   0  0  0  0  0  0  0  0  0  0  0  0
  -16.8011    1.1903    2.2096 O   0  0  0  0  0  0  0  0  0  0  0  0
  -15.8222    0.1225   -0.0605 C   0  0  0  0  0  0  0  0  0  0  0  0
  -14.4671   -0.1119   -0.0021 C   0  0  0  0  0  0  0  0  0  0  0  0
  -13.8958   -1.1730   -0.7160 C   0  0  0  0  0  0  0  0  0  0  0  0
  -14.7599   -1.9321   -1.4488 C   0  0  0  0  0  0  0  0  0  0  0  0
  -16.1156   -1.6881   -1.4985 C   0  0  0  0  0  0  0  0  0  0  0  0
  -16.6979   -0.6240   -0.7867 C   0  0  0  0  0  0  0  0  0  0  0  0
  -18.0701   -0.2113   -0.7517 C   0  0  0  0  0  0  0  0  0  0  0  0
  -19.1834   -0.7558   -1.4002 C   0  0  0  0  0  0  0  0  0  0  0  0
  -20.4364   -0.2221   -1.2791 C   0  0  0  0  0  0  0  0  0  0  0  0
  -20.6839    0.9035   -0.4973 C   0  0  0  0  0  0  0  0  0  0  0  0
  -19.5709    1.4201    0.1322 C   0  0  0  0  0  0  0  0  0  0  0  0
  -18.3184    0.8808    0.0071 C   0  0  0  0  0  0  0  0  0  0  0  0
  -13.8353    0.5214    0.5942 H   0  0  0  0  0  0  0  0  0  0  0  0
  -14.3393   -2.7642   -2.0317 H   0  0  0  0  0  0  0  0  0  0  0  0
  -16.7337   -2.3520   -2.1121 H   0  0  0  0  0  0  0  0  0  0  0  0
  -19.0932   -1.6435   -2.0404 H   0  0  0  0  0  0  0  0  0  0  0  0
  -21.2921   -0.6441   -1.7799 H   0  0  0  0  0  0  0  0  0  0  0  0
  -19.7341    2.3141    0.7619 H   0  0  0  0  0  0  0  0  0  0  0  0
  -22.0218    1.4620   -0.3923 C   0  0  0  0  0  0  0  0  0  0  0  0
  -22.2991    2.5765    0.3540 C   0  0  0  0  0  0  0  0  0  0  0  0
  -23.5578    3.1014    0.4400 N   0  0  0  0  0  0  0  0  0  0  0  0
  -24.5734    2.5062   -0.2325 C   0  0  0  0  0  0  0  0  0  0  0  0
  -24.3038    1.3844   -0.9857 C   0  0  0  0  0  0  0  0  0  0  0  0
  -23.0415    0.8938   -1.0456 N   0  0  0  0  0  0  0  0  0  0  0  0
  -21.5516    3.1095    0.9147 H   0  0  0  0  0  0  0  0  0  0  0  0
  -25.1256    0.9171   -1.5211 H   0  0  0  0  0  0  0  0  0  0  0  0
   25.2439    0.2246   -0.5393 H   0  0  0  0  0  0  0  0  0  0  0  0
  -25.5820    2.8880   -0.1918 H   0  0  0  0  0  0  0  0  0  0  0  0
  1  2  2  0
  2  3  2  0
  2  4  1  0
  4  5  2  0
  5  6  1  0
  6  7  2  0
  7  8  1  0
  8  9  2  0
  9 10  1  0
 10 11  2  0
 11 12  1  0
 12 13  2  0
 13 14  1  0
 14 15  2  0
 15  2  1  0
  9  4  1  0
 15 10  1  0
  5 16  1  0
  7 17  1  0
  8 18  1  0
 11 19  1  0
 12 20  1  0
 14 21  1  0
 22 23  3  0
 23 24  1  0
 24 25  2  0
 25 26  1  0
 26 27  2  0
 27 28  1  0
 28 29  2  0
 29 24  1  0
 25 30  1  0
 27 31  1  0
 28 32  1  0
 33 34  2  0
 34 35  2  0
 34 36  1  0
 36 37  2  0
 37 38  1  0
 38 39  2  0
 39 40  1  0
 40 41  2  0
 41 42  1  0
 42 43  2  0
 43 44  1  0
 44 45  2  0
 45 46  1  0
 46 47  2  0
 47 34  1  0
 41 36  1  0
 47 42  1  0
 37 48  1  0
 39 49  1  0
 40 50  1  0
 43 51  1  0
 44 52  1  0
 46 53  1  0
 54 55  2  0
 55 56  1  0
 56 57  2  0
 57 58  1  0
 58 59  2  0
 59 54  1  0
 55 60  1  0
 58 61  1  0
 62 63  2  0
 63 64  2  0
 63 65  1  0
 65 66  2  0
 66 67  1  0
 67 68  2  0
 68 69  1  0
 69 70  2  0
 70 71  1  0
 71 72  2  0
 72 73  1  0
 73 74  2  0
 74 75  1  0
 75 76  2  0
 76 63  1  0
 70 65  1  0
 76 71  1  0
 66 77  1  0
 68 78  1  0
 69 79  1  0
 72 80  1  0
 73 81  1  0
 75 82  1  0
 83 84  3  0
 84 85  1  0
 85 86  2  0
 86 87  1  0
 87 88  2  0
 88 89  1  0
 89 90  2  0
 90 85  1  0
 86 91  1  0
 88 92  1  0
 89 93  1  0
 94 95  2  0
 95 96  2  0
 95 97  1  0
 97 98  2  0
 98 99  1  0
 99100  2  0
100101  1  0
101102  2  0
102103  1  0
103104  2  0
104105  1  0
105106  2  0
106107  1  0
107108  2  0
108 95  1  0
102 97  1  0
108103  1  0
 98109  1  0
100110  1  0
101111  1  0
104112  1  0
105113  1  0
107114  1  0
115116  2  0
116117  1  0
117118  2  0
118119  1  0
119120  2  0
120115  1  0
116121  1  0
119122  1  0
 13 26  1  0
 29 38  1  0
 45 54  1  0
 57 67  1  0
 74 87  1  0
 90 99  1  0
106115  1  0
  6123  1  0
118124  1  0
M  END
