104

O        -16.38650       -1.05300        3.36800
S        -16.64140       -0.01580        2.31390
O        -16.63330        1.37440        2.83820
C        -18.06210       -0.37450        1.37450
C        -19.37470       -0.41310        1.74400
C        -20.38160       -0.72190        0.85670
C        -19.99250       -0.99160       -0.43040
C        -18.67200       -0.95230       -0.80000
C        -17.66600       -0.63780        0.11090
C        -16.23980       -0.54970       -0.10220
C        -15.50330       -0.75550       -1.27570
C        -14.13620       -0.62520       -1.29740
C        -13.41220       -0.28790       -0.18010
C        -14.12760       -0.08370        0.97860
C        -15.50490       -0.21760        0.98930
H        -19.70220       -0.19840        2.77500
H        -20.78250       -1.24270       -1.16180
H        -18.43270       -1.18260       -1.85610
H        -15.98330       -1.02630       -2.21600
H        -13.55790       -0.78480       -2.21150
H        -13.58400        0.18590        1.88860
N         -9.09590        2.80310        2.23350
C         -9.47220        1.95200        1.54820
C         -9.97620        0.92960        0.68620
C        -11.37230        0.74660        0.64940
C        -11.96440       -0.14660       -0.19270
C        -11.13380       -0.87120       -1.01530
C         -9.77200       -0.71200       -0.99730
C         -9.15340        0.21760       -0.11880
H        -12.00100        1.32750        1.30460
H        -11.58500       -1.58700       -1.69450
H         -9.12060       -1.28600       -1.64800
C         -7.69620        0.33840       -0.21660
C         -6.82090        0.65350        0.76500
N         -5.47940        0.67130        0.56340
C         -4.93490        0.37100       -0.63690
C         -5.81670        0.04830       -1.63600
N         -7.13870        0.03280       -1.43430
H         -7.14590        0.86130        1.76310
H         -5.39910       -0.20180       -2.62860
N          0.02470        1.60090        2.31220
C         -0.56640        1.24460        1.35700
C         -1.30670        0.83200        0.20040
C         -2.70340        0.78590        0.30410
C         -3.47750        0.40990       -0.79690
C         -2.87760        0.09110       -1.96080
C         -1.47710        0.14470       -2.03820
C         -0.68570        0.50940       -0.97650
H         -3.21220        1.03590        1.22260
H         -3.44990       -0.20190       -2.82670
H         -1.00690       -0.11220       -2.97410
O          4.14730       -2.22240        0.76350
S          4.19510       -0.72820        0.78000
O          4.13690       -0.15830        2.16520
C          2.94290       -0.02600       -0.24140
C          1.56150       -0.09010       -0.14630
C          0.76480        0.54350       -1.06750
C          1.42560        1.22820       -2.06830
C          2.79480        1.29750       -2.17180
C          3.61120        0.64860       -1.22560
C          5.04060        0.61510       -1.14620
C          6.00510        1.21000       -1.97700
C          7.34060        1.08800       -1.74050
C          7.83510        0.38930       -0.69430
C          6.89630       -0.21540        0.15010
C          5.55450       -0.08720       -0.09590
H          1.14010       -0.65840        0.66230
H          0.80550        1.73220       -2.80240
H          3.25770        1.85700       -2.99030
H          5.70250        1.79560       -2.84920
H          8.04740        1.56690       -2.41250
H          7.27770       -0.78100        0.99380
N         11.76850       -0.39490        3.63020
C         11.49390       -0.19260        2.52590
C         11.11640        0.02450        1.15850
C          9.74370        0.13610        0.86710
C          9.26410        0.26460       -0.41270
C         10.18350        0.28150       -1.43350
C         11.52200        0.17480       -1.15880
C         12.02940        0.04410        0.15480
H          9.04070        0.12110        1.67170
H          9.82050        0.38150       -2.46700
H         12.26290        0.18620       -1.95210
C         13.48340       -0.10550        0.30350
C         14.24860        0.34880        1.32940
N         15.60860        0.20660        1.32370
C         16.26250       -0.38530        0.30890
C         15.48530       -0.83960       -0.72440
N         14.14930       -0.71190       -0.74080
H         13.78970        0.87740        2.15300
H         16.00940       -1.32640       -1.56670
N         21.20540       -2.36020       -2.43960
C         20.59010       -1.84560       -1.59060
C         19.85620       -1.20620       -0.53600
C         18.45980       -1.10540       -0.61310
C         17.71560       -0.51120        0.35640
C         18.40400        0.01010        1.46210
C         19.77670       -0.08980        1.53600
C         20.52300       -0.69010        0.55550
H         17.98080       -1.52770       -1.49250
H         17.82190        0.47750        2.22620
H         20.32760        0.31510        2.39650
H        -21.43050       -0.75280        1.15020
H         21.59760       -0.74460        0.65870
