
     RDKit          3D

 98109  0  0  0  0  0  0  0  0999 V2000
  -15.0330   -4.0026    0.7081 O   0  0  0  0  0  0  0  0  0  0  0  0
  -15.3978   -3.0200   -0.3546 S   0  0  0  0  0  0  0  0  0  0  0  0
  -15.1853   -3.5736   -1.7336 O   0  0  0  0  0  0  0  0  0  0  0  0
  -17.0152   -2.4118   -0.1407 C   0  0  0  0  0  0  0  0  0  0  0  0
  -18.2246   -3.0567   -0.1664 C   0  0  0  0  0  0  0  0  0  0  0  0
  -19.4040   -2.3642    0.0287 C   0  0  0  0  0  0  0  0  0  0  0  0
  -19.3153   -1.0160    0.2473 C   0  0  0  0  0  0  0  0  0  0  0  0
  -18.0980   -0.3885    0.2694 C   0  0  0  0  0  0  0  0  0  0  0  0
  -16.8891   -1.0678    0.0749 C   0  0  0  0  0  0  0  0  0  0  0  0
  -15.5503   -0.5661    0.0790 C   0  0  0  0  0  0  0  0  0  0  0  0
  -15.0940    0.7537    0.2800 C   0  0  0  0  0  0  0  0  0  0  0  0
  -13.7464    1.0226    0.2542 C   0  0  0  0  0  0  0  0  0  0  0  0
  -12.7873    0.0753    0.0415 C   0  0  0  0  0  0  0  0  0  0  0  0
  -13.2240   -1.2377   -0.1601 C   0  0  0  0  0  0  0  0  0  0  0  0
  -14.5677   -1.4950   -0.1325 C   0  0  0  0  0  0  0  0  0  0  0  0
  -18.2844   -4.1387   -0.3429 H   0  0  0  0  0  0  0  0  0  0  0  0
  -20.2280   -0.4625    0.4020 H   0  0  0  0  0  0  0  0  0  0  0  0
  -18.1093    0.7010    0.4521 H   0  0  0  0  0  0  0  0  0  0  0  0
  -15.7827    1.5705    0.4571 H   0  0  0  0  0  0  0  0  0  0  0  0
  -13.4414    2.0522    0.4140 H   0  0  0  0  0  0  0  0  0  0  0  0
  -12.4999   -2.0007   -0.3293 H   0  0  0  0  0  0  0  0  0  0  0  0
   -8.6843    3.5570    2.4908 N   0  0  0  0  0  0  0  0  0  0  0  0
   -9.0189    2.7397    1.7271 C   0  0  0  0  0  0  0  0  0  0  0  0
   -9.4645    1.7084    0.8146 C   0  0  0  0  0  0  0  0  0  0  0  0
  -10.8367    1.4014    0.7977 C   0  0  0  0  0  0  0  0  0  0  0  0
  -11.3685    0.3998    0.0325 C   0  0  0  0  0  0  0  0  0  0  0  0
  -10.4718   -0.3110   -0.7413 C   0  0  0  0  0  0  0  0  0  0  0  0
   -9.1330   -0.0355   -0.7469 C   0  0  0  0  0  0  0  0  0  0  0  0
   -8.5915    1.0034    0.0479 C   0  0  0  0  0  0  0  0  0  0  0  0
  -11.5013    1.9850    1.4189 H   0  0  0  0  0  0  0  0  0  0  0  0
  -10.8976   -1.1159   -1.3563 H   0  0  0  0  0  0  0  0  0  0  0  0
   -8.4350   -0.6026   -1.3616 H   0  0  0  0  0  0  0  0  0  0  0  0
   -7.1487    1.1931    0.0415 C   0  0  0  0  0  0  0  0  0  0  0  0
   -6.4541    2.3555    0.1574 C   0  0  0  0  0  0  0  0  0  0  0  0
   -5.0796    2.3426    0.0774 N   0  0  0  0  0  0  0  0  0  0  0  0
   -4.3869    1.2256   -0.1132 C   0  0  0  0  0  0  0  0  0  0  0  0
   -5.1027    0.0551   -0.2320 C   0  0  0  0  0  0  0  0  0  0  0  0
   -6.4420    0.0290   -0.1586 N   0  0  0  0  0  0  0  0  0  0  0  0
   -6.9544    3.3110    0.2705 H   0  0  0  0  0  0  0  0  0  0  0  0
   -4.5527   -0.8702   -0.3893 H   0  0  0  0  0  0  0  0  0  0  0  0
   -2.9393    1.2410   -0.1730 C   0  0  0  0  0  0  0  0  0  0  0  0
   -2.1942    2.3855   -0.0214 C   0  0  0  0  0  0  0  0  0  0  0  0
   -0.8489    2.3854   -0.0602 N   0  0  0  0  0  0  0  0  0  0  0  0
   -0.1582    1.2368   -0.2540 C   0  0  0  0  0  0  0  0  0  0  0  0
   -0.8892    0.0866   -0.4079 C   0  0  0  0  0  0  0  0  0  0  0  0
   -2.2405    0.0846   -0.3691 N   0  0  0  0  0  0  0  0  0  0  0  0
   -2.6996    3.3397    0.1374 H   0  0  0  0  0  0  0  0  0  0  0  0
   -0.3469   -0.8575   -0.5676 H   0  0  0  0  0  0  0  0  0  0  0  0
    4.5379   -1.6878   -2.0417 O   0  0  0  0  0  0  0  0  0  0  0  0
    4.6305   -1.0843   -0.6752 S   0  0  0  0  0  0  0  0  0  0  0  0
    4.4948   -2.0973    0.4092 O   0  0  0  0  0  0  0  0  0  0  0  0
    3.4337    0.1940   -0.4566 C   0  0  0  0  0  0  0  0  0  0  0  0
    2.0443    0.1367   -0.4619 C   0  0  0  0  0  0  0  0  0  0  0  0
    1.3155    1.2565   -0.2737 C   0  0  0  0  0  0  0  0  0  0  0  0
    2.0024    2.4424   -0.0798 C   0  0  0  0  0  0  0  0  0  0  0  0
    3.3706    2.4948   -0.0750 C   0  0  0  0  0  0  0  0  0  0  0  0
    4.1487    1.3384   -0.2684 C   0  0  0  0  0  0  0  0  0  0  0  0
    5.5765    1.1980   -0.2794 C   0  0  0  0  0  0  0  0  0  0  0  0
    6.5684    2.1747   -0.1005 C   0  0  0  0  0  0  0  0  0  0  0  0
    7.8931    1.8909   -0.1207 C   0  0  0  0  0  0  0  0  0  0  0  0
    8.3238    0.6203   -0.3198 C   0  0  0  0  0  0  0  0  0  0  0  0
    7.3621   -0.3548   -0.4985 C   0  0  0  0  0  0  0  0  0  0  0  0
    6.0267   -0.0744   -0.4789 C   0  0  0  0  0  0  0  0  0  0  0  0
    1.6017   -0.8341   -0.6221 H   0  0  0  0  0  0  0  0  0  0  0  0
    1.4072    3.3351    0.0701 H   0  0  0  0  0  0  0  0  0  0  0  0
    3.8470    3.4732    0.0845 H   0  0  0  0  0  0  0  0  0  0  0  0
    6.3056    3.2313    0.0660 H   0  0  0  0  0  0  0  0  0  0  0  0
    8.6325    2.6683    0.0216 H   0  0  0  0  0  0  0  0  0  0  0  0
    7.7126   -1.3724   -0.6581 H   0  0  0  0  0  0  0  0  0  0  0  0
   13.4623    2.2385    2.0543 N   0  0  0  0  0  0  0  0  0  0  0  0
   12.8097    1.5579    1.3478 C   0  0  0  0  0  0  0  0  0  0  0  0
   11.9829    0.7489    0.4975 C   0  0  0  0  0  0  0  0  0  0  0  0
   10.6002    0.9979    0.4346 C   0  0  0  0  0  0  0  0  0  0  0  0
    9.7353    0.2895   -0.3379 C   0  0  0  0  0  0  0  0  0  0  0  0
   10.2481   -0.7324   -1.1038 C   0  0  0  0  0  0  0  0  0  0  0  0
   11.6230   -0.9965   -1.0551 C   0  0  0  0  0  0  0  0  0  0  0  0
   12.4968   -0.2760   -0.2698 C   0  0  0  0  0  0  0  0  0  0  0  0
   10.2133    1.7979    1.0370 H   0  0  0  0  0  0  0  0  0  0  0  0
    9.5734   -1.3053   -1.7234 H   0  0  0  0  0  0  0  0  0  0  0  0
   11.9732   -1.8131   -1.6779 H   0  0  0  0  0  0  0  0  0  0  0  0
   13.9289   -0.5893   -0.2471 C   0  0  0  0  0  0  0  0  0  0  0  0
   14.4744   -1.6079   -1.0322 C   0  0  0  0  0  0  0  0  0  0  0  0
   15.7853   -1.9150   -1.0277 N   0  0  0  0  0  0  0  0  0  0  0  0
   16.6178   -1.2231   -0.2417 C   0  0  0  0  0  0  0  0  0  0  0  0
   16.1148   -0.2015    0.5544 C   0  0  0  0  0  0  0  0  0  0  0  0
   14.8040    0.0618    0.5115 N   0  0  0  0  0  0  0  0  0  0  0  0
   13.8528   -2.1911   -1.6807 H   0  0  0  0  0  0  0  0  0  0  0  0
   16.7799    0.3668    1.1964 H   0  0  0  0  0  0  0  0  0  0  0  0
   18.0479   -1.5040   -0.1799 C   0  0  0  0  0  0  0  0  0  0  0  0
   18.5356   -2.5247   -0.9622 C   0  0  0  0  0  0  0  0  0  0  0  0
   19.8387   -2.8212   -0.9351 N   0  0  0  0  0  0  0  0  0  0  0  0
   20.6848   -2.1302   -0.1480 C   0  0  0  0  0  0  0  0  0  0  0  0
   20.2098   -1.1012    0.6442 C   0  0  0  0  0  0  0  0  0  0  0  0
   18.8852   -0.8226    0.5969 N   0  0  0  0  0  0  0  0  0  0  0  0
   17.8936   -3.1211   -1.6236 H   0  0  0  0  0  0  0  0  0  0  0  0
   20.9014   -0.5583    1.2680 H   0  0  0  0  0  0  0  0  0  0  0  0
  -20.3516   -2.8669    0.0093 H   0  0  0  0  0  0  0  0  0  0  0  0
   21.7615   -2.3543   -0.1064 H   0  0  0  0  0  0  0  0  0  0  0  0
  1  2  2  0
  2  3  2  0
  2  4  1  0
  4  5  2  0
  5  6  1  0
  6  7  2  0
  7  8  1  0
  8  9  2  0
  9 10  1  0
 10 11  2  0
 11 12  1  0
 12 13  2  0
 13 14  1  0
 14 15  2  0
 15  2  1  0
  9  4  1  0
 15 10  1  0
  5 16  1  0
  7 17  1  0
  8 18  1  0
 11 19  1  0
 12 20  1  0
 14 21  1  0
 22 23  3  0
 23 24  1  0
 24 25  2  0
 25 26  1  0
 26 27  2  0
 27 28  1  0
 28 29  2  0
 29 24  1  0
 25 30  1  0
 27 31  1  0
 28 32  1  0
 33 34  2  0
 34 35  1  0
 35 36  2  0
 36 37  1  0
 37 38  2  0
 38 33  1  0
 34 39  1  0
 37 40  1  0
 41 42  2  0
 42 43  1  0
 43 44  2  0
 44 45  1  0
 45 46  2  0
 46 41  1  0
 42 47  1  0
 45 48  1  0
 49 50  2  0
 50 51  2  0
 50 52  1  0
 52 53  2  0
 53 54  1  0
 54 55  2  0
 55 56  1  0
 56 57  2  0
 57 58  1  0
 58 59  2  0
 59 60  1  0
 60 61  2  0
 61 62  1  0
 62 63  2  0
 63 50  1  0
 57 52  1  0
 63 58  1  0
 53 64  1  0
 55 65  1  0
 56 66  1  0
 59 67  1  0
 60 68  1  0
 62 69  1  0
 70 71  3  0
 71 72  1  0
 72 73  2  0
 73 74  1  0
 74 75  2  0
 75 76  1  0
 76 77  2  0
 77 72  1  0
 73 78  1  0
 75 79  1  0
 76 80  1  0
 81 82  2  0
 82 83  1  0
 83 84  2  0
 84 85  1  0
 85 86  2  0
 86 81  1  0
 82 87  1  0
 85 88  1  0
 89 90  2  0
 90 91  1  0
 91 92  2  0
 92 93  1  0
 93 94  2  0
 94 89  1  0
 90 95  1  0
 93 96  1  0
 13 26  1  0
 29 33  1  0
 36 41  1  0
 44 54  1  0
 61 74  1  0
 77 81  1  0
 84 89  1  0
  6 97  1  0
 92 98  1  0
M  END
