92

O        -15.81700       -0.33240       -3.40630
S        -15.86390       -1.12820       -2.15100
O        -15.67660       -2.59490       -2.38590
C        -17.30690       -0.83830       -1.22300
C        -18.63100       -1.06610       -1.53340
C        -19.63410       -0.75720       -0.63180
C        -19.24800       -0.21930        0.57120
C        -17.94170       -0.00290        0.85750
C        -16.89980       -0.30600       -0.03670
C        -15.48800       -0.13870        0.11750
C        -14.76830        0.37210        1.21420
C        -13.39580        0.45440        1.18640
C        -12.64690        0.05420        0.11330
C        -13.33580       -0.44810       -0.96910
C        -14.72020       -0.53290       -0.94480
H        -18.92820       -1.48870       -2.48060
H        -20.00590        0.03860        1.30850
H        -17.72290        0.43060        1.84240
H        -15.31290        0.70890        2.10260
H        -12.84730        0.85080        2.04320
H        -12.83950       -0.79490       -1.87510
C        -11.18780        0.12320        0.07620
C        -10.45620        0.56140        1.13670
N         -9.10300        0.60030        1.07430
C         -8.43770        0.20370       -0.04720
C         -9.17980       -0.23350       -1.10530
N        -10.50580       -0.26530       -1.02730
H        -10.87690        0.89680        2.06820
H         -8.68040       -0.55120       -2.00230
C         -6.98420        0.26530       -0.01750
C         -6.30280        0.69440        1.11420
N         -4.97160        0.74800        1.17600
C         -4.24230        0.37760        0.11550
C         -4.87310       -0.05310       -1.02530
N         -6.23750       -0.10130       -1.07070
H         -6.91710        0.98920        1.96000
H         -4.32450       -0.36530       -1.91840
C         -2.79760        0.41410        0.16280
C         -2.17940        0.83000        1.33900
N         -0.86000        0.85520        1.39510
C         -0.07870        0.48710        0.33840
C         -0.69970        0.08240       -0.80740
N         -2.03690        0.05050       -0.88210
H         -2.82140        1.11440        2.15660
H         -0.13290       -0.21390       -1.65910
O          4.86230       -1.58070       -1.79870
S          4.90560       -0.13450       -1.39760
O          4.87980        0.78970       -2.55330
C          3.57410        0.24410       -0.29820
C          2.20430        0.19020       -0.51390
C          1.36960        0.53420        0.49440
C          1.91860        0.92930        1.70920
C          3.27430        0.97470        1.89850
C          4.17240        0.62300        0.87120
C          5.60290        0.59540        0.88100
C          6.47910        0.91350        1.92470
C          7.82770        0.82730        1.79130
C          8.42190        0.42180        0.62190
C          7.55230        0.10790       -0.41180
C          6.19090        0.19430       -0.27840
H          1.86060       -0.12860       -1.49330
H          1.22160        1.19610        2.48850
H          3.63210        1.29300        2.87270
H          6.11430        1.24930        2.90230
H          8.47610        1.08890        2.64160
H          8.00670       -0.21880       -1.36100
C          9.86320        0.30390        0.47530
C         10.76700        0.53250        1.48200
N         12.09150        0.39020        1.30930
C         12.59700        0.00860        0.11290
C         11.69790       -0.21950       -0.89420
N         10.36900       -0.07470       -0.71300
H         10.43980        0.83820        2.45950
H         12.06010       -0.52310       -1.86110
C         14.05010       -0.15210       -0.02190
C         14.64380       -0.54340       -1.19320
N         16.00030       -0.69360       -1.28050
C         16.79890       -0.46380       -0.22520
C         16.19860       -0.06890        0.95430
N         14.86190        0.07970        1.04260
H         14.02910       -0.73830       -2.07110
H         16.81570        0.12530        1.82790
C         18.25060       -0.63690       -0.30600
C         18.79520       -1.05630       -1.49550
N         20.12160       -1.24090       -1.62070
C         20.96110       -1.02270       -0.59040
C         20.41320       -0.60120        0.60360
N         19.07110       -0.41520        0.72770
H         18.11180       -1.23540       -2.33880
H         21.01290       -0.39840        1.49540
H        -20.67490       -0.91440       -0.82180
H         22.02430       -1.16070       -0.65480
