
     RDKit          3D

 66 73  0  0  0  0  0  0  0  0999 V2000
   -8.5575    0.6827    3.2074 O   0  0  0  0  0  0  0  0  0  0  0  0
   -8.6286   -0.3070    2.0908 S   0  0  0  0  0  0  0  0  0  0  0  0
   -8.6630   -1.7274    2.5735 O   0  0  0  0  0  0  0  0  0  0  0  0
   -9.9317    0.0363    0.9865 C   0  0  0  0  0  0  0  0  0  0  0  0
  -11.2912    0.0292    1.1871 C   0  0  0  0  0  0  0  0  0  0  0  0
  -12.1624    0.3364    0.1612 C   0  0  0  0  0  0  0  0  0  0  0  0
  -11.5904    0.6492   -1.0695 C   0  0  0  0  0  0  0  0  0  0  0  0
  -10.2433    0.6496   -1.2439 C   0  0  0  0  0  0  0  0  0  0  0  0
   -9.3408    0.3392   -0.2105 C   0  0  0  0  0  0  0  0  0  0  0  0
   -7.9153    0.2948   -0.2242 C   0  0  0  0  0  0  0  0  0  0  0  0
   -7.0274    0.5510   -1.2859 C   0  0  0  0  0  0  0  0  0  0  0  0
   -5.6824    0.4615   -1.1215 C   0  0  0  0  0  0  0  0  0  0  0  0
   -5.1015    0.1164    0.0877 C   0  0  0  0  0  0  0  0  0  0  0  0
   -5.9413   -0.1346    1.1236 C   0  0  0  0  0  0  0  0  0  0  0  0
   -7.3137   -0.0442    0.9590 C   0  0  0  0  0  0  0  0  0  0  0  0
  -11.7177   -0.2215    2.1684 H   0  0  0  0  0  0  0  0  0  0  0  0
  -12.2220    0.9022   -1.9238 H   0  0  0  0  0  0  0  0  0  0  0  0
   -9.8747    0.9070   -2.2425 H   0  0  0  0  0  0  0  0  0  0  0  0
   -7.3880    0.8266   -2.2638 H   0  0  0  0  0  0  0  0  0  0  0  0
   -5.0064    0.6617   -1.9483 H   0  0  0  0  0  0  0  0  0  0  0  0
   -5.5773   -0.4076    2.0906 H   0  0  0  0  0  0  0  0  0  0  0  0
   -0.2992   -1.2680   -2.9212 N   0  0  0  0  0  0  0  0  0  0  0  0
   -0.8392   -0.8924   -1.9700 C   0  0  0  0  0  0  0  0  0  0  0  0
   -1.5088   -0.4524   -0.7797 C   0  0  0  0  0  0  0  0  0  0  0  0
   -2.8972   -0.3631   -0.8554 C   0  0  0  0  0  0  0  0  0  0  0  0
   -3.6547    0.0313    0.2246 C   0  0  0  0  0  0  0  0  0  0  0  0
   -2.9972    0.3383    1.3944 C   0  0  0  0  0  0  0  0  0  0  0  0
   -1.6027    0.2493    1.4712 C   0  0  0  0  0  0  0  0  0  0  0  0
   -0.8547   -0.1432    0.3927 C   0  0  0  0  0  0  0  0  0  0  0  0
   -3.4159   -0.6056   -1.7773 H   0  0  0  0  0  0  0  0  0  0  0  0
   -3.5674    0.6505    2.2586 H   0  0  0  0  0  0  0  0  0  0  0  0
   -1.1210    0.5004    2.4127 H   0  0  0  0  0  0  0  0  0  0  0  0
    3.9236    2.4663   -1.4934 O   0  0  0  0  0  0  0  0  0  0  0  0
    3.9859    0.9715   -1.4909 S   0  0  0  0  0  0  0  0  0  0  0  0
    3.8139    0.3824   -2.8413 O   0  0  0  0  0  0  0  0  0  0  0  0
    2.7522    0.2965   -0.4199 C   0  0  0  0  0  0  0  0  0  0  0  0
    1.3739    0.3927   -0.4949 C   0  0  0  0  0  0  0  0  0  0  0  0
    0.6002   -0.2197    0.4562 C   0  0  0  0  0  0  0  0  0  0  0  0
    1.2602   -0.9072    1.4495 C   0  0  0  0  0  0  0  0  0  0  0  0
    2.6279   -0.9979    1.5174 C   0  0  0  0  0  0  0  0  0  0  0  0
    3.4399   -0.3759    0.5491 C   0  0  0  0  0  0  0  0  0  0  0  0
    4.8676   -0.3488    0.4357 C   0  0  0  0  0  0  0  0  0  0  0  0
    5.8529   -0.9285    1.2525 C   0  0  0  0  0  0  0  0  0  0  0  0
    7.1806   -0.8116    1.0108 C   0  0  0  0  0  0  0  0  0  0  0  0
    7.6551   -0.1057   -0.0683 C   0  0  0  0  0  0  0  0  0  0  0  0
    6.7037    0.4783   -0.8929 C   0  0  0  0  0  0  0  0  0  0  0  0
    5.3613    0.3480   -0.6303 C   0  0  0  0  0  0  0  0  0  0  0  0
    0.9339    0.9661   -1.3109 H   0  0  0  0  0  0  0  0  0  0  0  0
    0.6841   -1.4075    2.2247 H   0  0  0  0  0  0  0  0  0  0  0  0
    3.1078   -1.5574    2.3281 H   0  0  0  0  0  0  0  0  0  0  0  0
    5.5282   -1.5023    2.1261 H   0  0  0  0  0  0  0  0  0  0  0  0
    7.9285   -1.2685    1.6563 H   0  0  0  0  0  0  0  0  0  0  0  0
    7.0423    1.0501   -1.7650 H   0  0  0  0  0  0  0  0  0  0  0  0
   13.0356   -2.7067    0.3180 N   0  0  0  0  0  0  0  0  0  0  0  0
   12.2672   -1.8799    0.0673 C   0  0  0  0  0  0  0  0  0  0  0  0
   11.3171   -0.8639   -0.2646 C   0  0  0  0  0  0  0  0  0  0  0  0
    9.9505   -0.9743   -0.0064 C   0  0  0  0  0  0  0  0  0  0  0  0
    9.0771    0.0344   -0.3463 C   0  0  0  0  0  0  0  0  0  0  0  0
    9.5588    1.1661   -0.9484 C   0  0  0  0  0  0  0  0  0  0  0  0
   10.9225    1.3156   -1.2246 C   0  0  0  0  0  0  0  0  0  0  0  0
   11.7637    0.2855   -0.8700 C   0  0  0  0  0  0  0  0  0  0  0  0
    9.6434   -1.8953    0.4711 H   0  0  0  0  0  0  0  0  0  0  0  0
    8.8866    1.9679   -1.2220 H   0  0  0  0  0  0  0  0  0  0  0  0
   11.3030    2.2034   -1.6976 H   0  0  0  0  0  0  0  0  0  0  0  0
  -13.2280    0.3463    0.2614 H   0  0  0  0  0  0  0  0  0  0  0  0
   12.8133    0.4143   -1.0888 H   0  0  0  0  0  0  0  0  0  0  0  0
  1  2  2  0
  2  3  2  0
  2  4  1  0
  4  5  2  0
  5  6  1  0
  6  7  2  0
  7  8  1  0
  8  9  2  0
  9 10  1  0
 10 11  2  0
 11 12  1  0
 12 13  2  0
 13 14  1  0
 14 15  2  0
 15  2  1  0
  9  4  1  0
 15 10  1  0
  5 16  1  0
  7 17  1  0
  8 18  1  0
 11 19  1  0
 12 20  1  0
 14 21  1  0
 22 23  3  0
 23 24  1  0
 24 25  2  0
 25 26  1  0
 26 27  2  0
 27 28  1  0
 28 29  2  0
 29 24  1  0
 25 30  1  0
 27 31  1  0
 28 32  1  0
 33 34  2  0
 34 35  2  0
 34 36  1  0
 36 37  2  0
 37 38  1  0
 38 39  2  0
 39 40  1  0
 40 41  2  0
 41 42  1  0
 42 43  2  0
 43 44  1  0
 44 45  2  0
 45 46  1  0
 46 47  2  0
 47 34  1  0
 41 36  1  0
 47 42  1  0
 37 48  1  0
 39 49  1  0
 40 50  1  0
 43 51  1  0
 44 52  1  0
 46 53  1  0
 54 55  3  0
 55 56  1  0
 56 57  2  0
 57 58  1  0
 58 59  2  0
 59 60  1  0
 60 61  2  0
 61 56  1  0
 57 62  1  0
 59 63  1  0
 60 64  1  0
 13 26  1  0
 29 38  1  0
 45 58  1  0
  6 65  1  0
 61 66  1  0
M  END
