124

O        -21.25730       -2.48000        1.35350
S        -21.23720       -1.07280        0.86730
O        -21.49370       -0.07810        1.96390
C        -22.37790       -0.82720       -0.45910
C        -23.75960       -0.95620       -0.49110
C        -24.42910       -0.70290       -1.66110
C        -23.69100       -0.32970       -2.75710
C        -22.32800       -0.20490       -2.71860
C        -21.61240       -0.45860       -1.52980
C        -20.20340       -0.39040       -1.29960
C        -19.16150       -0.05610       -2.18120
C        -17.86000       -0.04750       -1.80400
C        -17.46290       -0.36150       -0.54530
C        -18.47610       -0.69690        0.35340
C        -19.79550       -0.70440       -0.03370
H        -24.26190       -1.25420        0.42450
H        -24.22680       -0.13450       -3.67130
H        -21.80700        0.09860       -3.63290
H        -19.36830        0.21540       -3.22080
H        -17.07900        0.22090       -2.52480
H        -18.17990       -0.94940        1.36040
O        -12.68300        2.94640       -0.62680
S        -12.51810        1.51330       -0.95900
O        -12.20560        1.27840       -2.40660
C        -13.82580        0.51630       -0.39650
C        -15.16100        0.53990       -0.75000
C        -16.05930       -0.35580       -0.16610
C        -15.55510       -1.24140        0.75910
C        -14.23300       -1.23550        1.08230
C        -13.30330       -0.34970        0.51390
C        -11.87490       -0.22490        0.72580
C        -11.03520       -0.98180        1.56490
C         -9.68240       -0.74300        1.61620
C         -9.06060        0.22790        0.87190
C         -9.88030        0.97110        0.05210
C        -11.25050        0.73470       -0.00550
H        -15.54830        1.22620       -1.46630
H        -16.19270       -1.95680        1.24620
H        -13.86710       -1.94360        1.81390
H        -11.47790       -1.76460        2.17930
H         -9.05770       -1.35580        2.29070
H         -9.47630        1.74890       -0.55940
C         -7.60840        0.43970        0.87490
C         -6.72140       -0.43460        1.45510
N         -5.38510       -0.27120        1.40320
C         -4.86890        0.80260        0.75220
C         -5.71720        1.67900        0.17570
N         -7.07390        1.49780        0.23720
H         -7.11940       -1.29420        1.97300
H         -5.33530        2.54750       -0.35150
N         -0.32110        4.20440       -0.90100
C         -0.79040        3.22350       -0.50370
C         -1.38160        2.03750        0.00660
C         -2.78380        2.00870        0.14000
C         -3.41990        0.91600        0.65390
C         -2.60980       -0.16210        1.03800
C         -1.24530       -0.13870        0.90880
C         -0.59940        0.98190        0.37980
H         -3.35940        2.87690       -0.17240
H         -3.11540       -1.03250        1.45050
H         -0.60750       -0.97010        1.20250
O          4.07260       -1.50760        2.63350
S          4.29060       -0.08110        2.20830
O          4.35980        0.85650        3.37730
C          3.03020        0.43200        1.08280
C          1.66280        0.51590        1.24840
C          0.85420        0.93860        0.21810
C          1.48320        1.26400       -0.95280
C          2.84390        1.18140       -1.11580
C          3.68270        0.74920       -0.07300
C          5.10600        0.56790       -0.05680
C          6.04570        0.78880       -1.07490
C          7.36730        0.55940       -0.92620
C          7.86330        0.08440        0.26510
C          6.96160       -0.14100        1.28510
C          5.62180        0.10100        1.10950
H          1.22970        0.24410        2.20340
H          0.84110        1.58920       -1.78800
H          3.27100        1.45460       -2.06460
H          5.71310        1.16970       -2.05320
H          8.05580        0.74210       -1.73170
H          7.35940       -0.52210        2.23480
O         12.95660        1.13470       -2.28120
S         12.96320        1.19600       -0.79600
O         13.02710        2.60380       -0.26820
C         11.57210        0.36920       -0.08940
C         10.20720        0.61290       -0.22580
C          9.28950       -0.16750        0.43380
C          9.79520       -1.17680        1.21560
C         11.14360       -1.41780        1.34940
C         12.09250       -0.62810        0.68060
C         13.52040       -0.73750        0.68860
C         14.34610       -1.64930        1.34670
C         15.70190       -1.63070        1.23140
C         16.35550       -0.71640        0.46200
C         15.53180        0.20300       -0.20060
C         14.17570        0.17760       -0.07980
H          9.88540        1.42030       -0.85640
H          9.05480       -1.78950        1.73300
H         11.45650       -2.24720        1.99730
H         13.93270       -2.43660        1.99950
H         16.31460       -2.37140        1.77300
H         16.04770        0.94490       -0.82120
C         17.80070       -0.66580        0.27850
C         18.64570       -1.59930        0.82980
N         19.98270       -1.54890        0.62440
C         20.54610       -0.58040       -0.13030
C         19.68770        0.34890       -0.67540
N         18.36200        0.30800       -0.47820
H         18.28070       -2.40530        1.44480
H         20.09010        1.14830       -1.28870
N         25.17550        2.24520       -2.66060
C         24.65960        1.42520       -2.04010
C         24.01350        0.39290       -1.29070
C         22.64470        0.41500       -1.07570
C         21.98690       -0.55440       -0.36110
C         22.77520       -1.58940        0.15350
C         24.12530       -1.61790       -0.05440
C         24.78260       -0.64630       -0.77100
H         22.06940        1.24160       -1.49070
H         22.29580       -2.37340        0.72410
H         24.74360       -2.43760        0.35280
H        -25.52680       -0.79890       -1.71110
H         25.85280       -0.67970       -0.93320
