130

O        -20.07330       -2.48480       -1.67700
S        -20.05570       -1.06720       -1.18320
O        -20.04700       -0.07950       -2.29290
C        -21.31870       -0.76420       -0.02130
C        -22.68750       -0.76550       -0.15900
C        -23.50260       -0.49620        0.92490
C        -22.88820       -0.23390        2.11800
C        -21.53310       -0.23340        2.25410
C        -20.68350       -0.50580        1.16090
C        -19.25230       -0.54940        1.12580
C        -18.33360       -0.32930        2.17720
C        -16.98840       -0.40920        1.97360
C        -16.45060       -0.70430        0.74570
C        -17.32380       -0.92310       -0.29790
C        -18.69640       -0.84350       -0.09460
H        -23.14520       -0.98140       -1.12510
H        -23.52030       -0.02050        2.96850
H        -21.13990       -0.01200        3.23780
H        -18.65800       -0.08330        3.17420
H        -16.29130       -0.23300        2.80060
H        -16.97090       -1.16640       -1.28450
C        -15.00850       -0.81710        0.60890
C        -14.36410       -0.92630       -0.59700
N        -13.02390       -1.02420       -0.70100
C        -12.24640       -1.02040        0.39430
C        -12.86390       -0.91040        1.63580
N        -14.19240       -0.81390        1.70000
H        -14.97300       -0.93560       -1.51010
H        -12.22670       -0.90520        2.53130
C        -10.78580       -1.11540        0.30180
C        -10.18000       -2.25210        0.80230
C         -8.81200       -2.41180        0.79030
C         -8.05060       -1.36690        0.24830
C         -6.67750       -1.48610        0.22970
C         -5.89090       -0.45790       -0.28950
C         -6.43090        0.69370       -0.79260
C         -5.63760        1.70070       -1.28980
C         -6.23140        2.85490       -1.78860
C         -7.61350        2.94230       -1.75970
C         -8.42360        1.94040       -1.26020
C         -9.79730        2.03280       -1.21990
C        -10.61190        1.04230       -0.71490
C        -10.01710       -0.11340       -0.22020
C         -8.61180       -0.22340       -0.25540
C         -7.83230        0.79950       -0.76980
H        -10.81060       -3.05700        1.22340
H         -8.29140       -3.26320        1.15690
H         -6.23860       -2.38240        0.61850
H         -4.84140       -0.65160       -0.28540
H         -5.62680        3.66120       -2.18260
H         -8.07980        3.83830       -2.14320
H        -10.25870        2.91220       -1.60260
H        -11.69820        1.12260       -0.67780
N         -0.59120        2.20300       -4.46340
C         -1.23150        2.04930       -3.49010
C         -2.03420        1.84060       -2.29430
C         -3.42510        1.86840       -2.40680
C         -4.17110        1.66140       -1.27090
C         -3.51690        1.43520       -0.06760
C         -2.14530        1.40940        0.03450
C         -1.41910        1.61490       -1.09790
H         -3.89930        2.04750       -3.36070
H         -4.08080        1.27690        0.85330
H         -1.65590        1.22910        0.99200
O          3.16390       -1.96000       -0.63320
S          3.20550       -0.69150        0.14810
O          3.02990       -0.92050        1.62030
C          2.10720        0.52770       -0.45550
C          0.72050        0.52990       -0.53080
C          0.05110        1.60920       -1.04900
C          0.81670        2.67230       -1.48540
C          2.17430        2.66430       -1.40820
C          2.87580        1.56560       -0.87910
C          4.31270        1.38470       -0.70680
C          5.35990        2.27260       -1.02580
C          6.66180        1.92940       -0.77250
C          7.02610        0.71360       -0.19980
C          6.00740       -0.14460        0.10680
C          4.68260        0.20180       -0.14910
H          0.17210       -0.32180       -0.17710
H          0.32260        3.54420       -1.90270
H          2.73130        3.52890       -1.76090
H          5.13230        3.23280       -1.47450
H          7.47660        2.59710       -1.01200
H          6.19000       -1.10620        0.54820
C          8.42510        0.40320        0.07040
C          8.82570       -0.81190        0.57990
N         10.11900       -1.07170        0.81680
C         11.10500       -0.13230        0.56170
C         10.70240        1.04340        0.06910
N          9.39540        1.30070       -0.17030
H          8.09030       -1.58650        0.80010
H         11.37750        1.89190       -0.13380
C         12.46120       -0.44510        0.96550
C         12.58240       -1.11760        2.21300
C         13.82250       -1.46370        2.66400
C         14.97380       -1.18420        1.94980
C         16.19970       -1.55620        2.45510
C         17.37310       -1.29370        1.76140
C         17.30440       -0.65070        0.54560
C         18.45340       -0.38910       -0.16180
C         18.32200        0.25710       -1.39010
C         17.09030        0.61750       -1.87650
C         15.93730        0.35270       -1.16210
C         14.70440        0.70780       -1.65070
C         13.53790        0.46100       -0.97650
C         13.59470       -0.17180        0.25760
C         14.86130       -0.53910        0.74570
C         16.03490       -0.28110        0.05340
H         11.67810       -1.32950        2.76290
H         13.93820       -1.98060        3.61740
H         16.24370       -2.06470        3.41640
H         18.31800       -1.58360        2.19430
H         19.22750        0.46220       -1.94820
H         16.96120        1.12230       -2.83680
H         14.64280        1.20200       -2.61020
H         12.59890        0.71790       -1.44460
N         21.88200       -5.06970        1.31860
C         21.62980       -3.95790        1.16940
C         21.31130       -2.56310        0.96570
C         20.08660       -2.13650        0.50750
C         19.77210       -0.79430        0.31250
C         20.75100        0.14510        0.59860
C         21.98130       -0.24610        1.05640
C         22.26730       -1.59120        1.24090
H         19.30620       -2.87950        0.28110
H         20.55220        1.19570        0.45850
H         22.76960        0.45790        1.29140
H        -24.56970       -0.48800        0.85580
H         23.21700       -1.94480        1.59990
