
     RDKit          3D

 66 75  0  0  0  0  0  0  0  0999 V2000
   -9.9113    0.5337    0.8010 C   0  0  0  0  0  0  0  0  0  0  0  0
   -9.6170    1.1680    1.9896 C   0  0  0  0  0  0  0  0  0  0  0  0
   -8.3050    1.2815    2.3970 C   0  0  0  0  0  0  0  0  0  0  0  0
   -7.2840    0.7608    1.6172 C   0  0  0  0  0  0  0  0  0  0  0  0
   -5.9873    0.8750    2.0167 C   0  0  0  0  0  0  0  0  0  0  0  0
   -4.9893    0.3418    1.2085 C   0  0  0  0  0  0  0  0  0  0  0  0
   -5.2269   -0.3038    0.0192 C   0  0  0  0  0  0  0  0  0  0  0  0
   -4.2206   -0.7955   -0.7507 C   0  0  0  0  0  0  0  0  0  0  0  0
   -4.5774   -1.4071   -1.9650 C   0  0  0  0  0  0  0  0  0  0  0  0
   -5.8854   -1.5050   -2.3485 C   0  0  0  0  0  0  0  0  0  0  0  0
   -6.9241   -1.0052   -1.5576 C   0  0  0  0  0  0  0  0  0  0  0  0
   -8.2247   -1.1149   -1.9703 C   0  0  0  0  0  0  0  0  0  0  0  0
   -9.2094   -0.6077   -1.1798 C   0  0  0  0  0  0  0  0  0  0  0  0
   -8.9057    0.0031    0.0004 C   0  0  0  0  0  0  0  0  0  0  0  0
   -7.5868    0.1259    0.4271 C   0  0  0  0  0  0  0  0  0  0  0  0
   -6.5709   -0.4060   -0.3730 C   0  0  0  0  0  0  0  0  0  0  0  0
  -10.4069    1.5773    2.6049 H   0  0  0  0  0  0  0  0  0  0  0  0
   -8.0427    1.7667    3.3114 H   0  0  0  0  0  0  0  0  0  0  0  0
   -5.7493    1.3636    2.9298 H   0  0  0  0  0  0  0  0  0  0  0  0
   -3.9481    0.4828    1.5036 H   0  0  0  0  0  0  0  0  0  0  0  0
   -3.8213   -1.8140   -2.6227 H   0  0  0  0  0  0  0  0  0  0  0  0
   -6.1804   -1.9759   -3.2861 H   0  0  0  0  0  0  0  0  0  0  0  0
   -8.4333   -1.6076   -2.9245 H   0  0  0  0  0  0  0  0  0  0  0  0
  -10.2514   -0.6788   -1.4715 H   0  0  0  0  0  0  0  0  0  0  0  0
   -2.7977   -0.7385   -0.4597 C   0  0  0  0  0  0  0  0  0  0  0  0
   -2.2073   -1.0761    0.7287 C   0  0  0  0  0  0  0  0  0  0  0  0
   -0.8811   -1.0808    0.8417 N   0  0  0  0  0  0  0  0  0  0  0  0
   -0.0295   -0.7676   -0.1645 C   0  0  0  0  0  0  0  0  0  0  0  0
   -0.6121   -0.4362   -1.3447 C   0  0  0  0  0  0  0  0  0  0  0  0
   -1.9331   -0.4257   -1.4708 N   0  0  0  0  0  0  0  0  0  0  0  0
   -2.8384   -1.3833    1.5873 H   0  0  0  0  0  0  0  0  0  0  0  0
    0.0354   -0.2128   -2.2144 H   0  0  0  0  0  0  0  0  0  0  0  0
    1.3769   -0.9377    0.1471 C   0  0  0  0  0  0  0  0  0  0  0  0
    1.7404   -2.0841    0.8907 C   0  0  0  0  0  0  0  0  0  0  0  0
    3.0078   -2.3717    1.2669 C   0  0  0  0  0  0  0  0  0  0  0  0
    4.0022   -1.4816    0.8961 C   0  0  0  0  0  0  0  0  0  0  0  0
    5.2976   -1.7896    1.2923 C   0  0  0  0  0  0  0  0  0  0  0  0
    6.3214   -0.9334    0.9523 C   0  0  0  0  0  0  0  0  0  0  0  0
    6.0611    0.2111    0.2277 C   0  0  0  0  0  0  0  0  0  0  0  0
    7.0840    1.0580   -0.0641 C   0  0  0  0  0  0  0  0  0  0  0  0
    6.7411    2.2426   -0.7653 C   0  0  0  0  0  0  0  0  0  0  0  0
    5.4654    2.5210   -1.1328 C   0  0  0  0  0  0  0  0  0  0  0  0
    4.4227    1.6391   -0.8316 C   0  0  0  0  0  0  0  0  0  0  0  0
    3.1480    1.9261   -1.1882 C   0  0  0  0  0  0  0  0  0  0  0  0
    2.1146    1.0888   -0.8879 C   0  0  0  0  0  0  0  0  0  0  0  0
    2.3909   -0.0805   -0.1958 C   0  0  0  0  0  0  0  0  0  0  0  0
    3.6948   -0.3639    0.1822 C   0  0  0  0  0  0  0  0  0  0  0  0
    4.7452    0.4919   -0.1524 C   0  0  0  0  0  0  0  0  0  0  0  0
    0.9523   -2.7720    1.1747 H   0  0  0  0  0  0  0  0  0  0  0  0
    3.2693   -3.2714    1.8462 H   0  0  0  0  0  0  0  0  0  0  0  0
    5.4700   -2.6832    1.8513 H   0  0  0  0  0  0  0  0  0  0  0  0
    7.2859   -1.2231    1.3379 H   0  0  0  0  0  0  0  0  0  0  0  0
    7.5334    2.9397   -1.0093 H   0  0  0  0  0  0  0  0  0  0  0  0
    5.1994    3.4210   -1.6660 H   0  0  0  0  0  0  0  0  0  0  0  0
    2.9311    2.8373   -1.7240 H   0  0  0  0  0  0  0  0  0  0  0  0
    1.1042    1.3179   -1.1241 H   0  0  0  0  0  0  0  0  0  0  0  0
    8.4836    0.8921    0.2815 C   0  0  0  0  0  0  0  0  0  0  0  0
    9.1629   -0.2545    0.0804 C   0  0  0  0  0  0  0  0  0  0  0  0
   10.5050   -0.3760    0.3051 N   0  0  0  0  0  0  0  0  0  0  0  0
   11.1880    0.6871    0.7441 C   0  0  0  0  0  0  0  0  0  0  0  0
   10.4959    1.8648    0.9500 C   0  0  0  0  0  0  0  0  0  0  0  0
    9.1861    1.9783    0.7300 N   0  0  0  0  0  0  0  0  0  0  0  0
    8.7200   -1.1702   -0.3111 H   0  0  0  0  0  0  0  0  0  0  0  0
   11.0978    2.7099    1.3096 H   0  0  0  0  0  0  0  0  0  0  0  0
  -10.9338    0.4213    0.4403 H   0  0  0  0  0  0  0  0  0  0  0  0
   12.2574    0.6071    0.9279 H   0  0  0  0  0  0  0  0  0  0  0  0
  1  2  2  0
  2  3  1  0
  3  4  2  0
  4  5  1  0
  5  6  2  0
  6  7  1  0
  7  8  2  0
  8  9  1  0
  9 10  2  0
 10 11  1  0
 11 12  2  0
 12 13  1  0
 13 14  2  0
 14 15  1  0
 15 16  2  0
 14  1  1  0
 15  4  1  0
 16  7  1  0
 16 11  1  0
  2 17  1  0
  3 18  1  0
  5 19  1  0
  6 20  1  0
  9 21  1  0
 10 22  1  0
 12 23  1  0
 13 24  1  0
 25 26  2  0
 26 27  1  0
 27 28  2  0
 28 29  1  0
 29 30  2  0
 30 25  1  0
 26 31  1  0
 29 32  1  0
 33 34  2  0
 34 35  1  0
 35 36  2  0
 36 37  1  0
 37 38  2  0
 38 39  1  0
 39 40  2  0
 40 41  1  0
 41 42  2  0
 42 43  1  0
 43 44  2  0
 44 45  1  0
 45 46  2  0
 46 47  1  0
 47 48  2  0
 46 33  1  0
 47 36  1  0
 48 39  1  0
 48 43  1  0
 34 49  1  0
 35 50  1  0
 37 51  1  0
 38 52  1  0
 41 53  1  0
 42 54  1  0
 44 55  1  0
 45 56  1  0
 57 58  2  0
 58 59  1  0
 59 60  2  0
 60 61  1  0
 61 62  2  0
 62 57  1  0
 58 63  1  0
 61 64  1  0
  8 25  1  0
 28 33  1  0
 40 57  1  0
  1 65  1  0
 60 66  1  0
M  END
