
     RDKit          3D

110123  0  0  0  0  0  0  0  0999 V2000
  -15.8794   -0.2633    3.7898 N   0  0  0  0  0  0  0  0  0  0  0  0
  -16.1976   -0.0315    2.6869 C   0  0  0  0  0  0  0  0  0  0  0  0
  -16.5916    0.2265    1.3355 C   0  0  0  0  0  0  0  0  0  0  0  0
  -17.9148    0.2420    0.9487 C   0  0  0  0  0  0  0  0  0  0  0  0
  -18.3210    0.4838   -0.3422 C   0  0  0  0  0  0  0  0  0  0  0  0
  -17.3384    0.7243   -1.3053 C   0  0  0  0  0  0  0  0  0  0  0  0
  -16.0159    0.7128   -0.9374 C   0  0  0  0  0  0  0  0  0  0  0  0
  -15.6125    0.4702    0.3629 C   0  0  0  0  0  0  0  0  0  0  0  0
  -18.7164    0.0596    1.6715 H   0  0  0  0  0  0  0  0  0  0  0  0
  -17.6598    0.9149   -2.3258 H   0  0  0  0  0  0  0  0  0  0  0  0
  -15.2812    0.9045   -1.7182 H   0  0  0  0  0  0  0  0  0  0  0  0
  -14.2023    0.5620    0.6761 C   0  0  0  0  0  0  0  0  0  0  0  0
  -13.8082    1.5071    1.6404 C   0  0  0  0  0  0  0  0  0  0  0  0
  -12.4769    1.6815    1.8698 C   0  0  0  0  0  0  0  0  0  0  0  0
  -11.4968    0.9732    1.1995 C   0  0  0  0  0  0  0  0  0  0  0  0
  -10.1731    1.2045    1.4562 C   0  0  0  0  0  0  0  0  0  0  0  0
   -9.2019    0.5187    0.7797 C   0  0  0  0  0  0  0  0  0  0  0  0
   -9.5288   -0.4244   -0.1795 C   0  0  0  0  0  0  0  0  0  0  0  0
   -8.5611   -1.1252   -0.8578 C   0  0  0  0  0  0  0  0  0  0  0  0
   -8.9878   -2.0750   -1.7933 C   0  0  0  0  0  0  0  0  0  0  0  0
  -10.3168   -2.2843   -2.0168 C   0  0  0  0  0  0  0  0  0  0  0  0
  -11.2993   -1.5766   -1.3406 C   0  0  0  0  0  0  0  0  0  0  0  0
  -12.6298   -1.7850   -1.5814 C   0  0  0  0  0  0  0  0  0  0  0  0
  -13.6286   -1.0951   -0.9345 C   0  0  0  0  0  0  0  0  0  0  0  0
  -13.2541   -0.1567    0.0006 C   0  0  0  0  0  0  0  0  0  0  0  0
  -11.8892    0.0472    0.2589 C   0  0  0  0  0  0  0  0  0  0  0  0
  -10.8831   -0.6379   -0.4141 C   0  0  0  0  0  0  0  0  0  0  0  0
  -14.5765    2.0524    2.1562 H   0  0  0  0  0  0  0  0  0  0  0  0
  -12.1733    2.4050    2.6126 H   0  0  0  0  0  0  0  0  0  0  0  0
   -9.8938    1.9298    2.1912 H   0  0  0  0  0  0  0  0  0  0  0  0
   -8.1515    0.6955    1.0090 H   0  0  0  0  0  0  0  0  0  0  0  0
   -8.2170   -2.6258   -2.3180 H   0  0  0  0  0  0  0  0  0  0  0  0
  -10.6047   -3.0193   -2.7348 H   0  0  0  0  0  0  0  0  0  0  0  0
  -12.9049   -2.5356   -2.3224 H   0  0  0  0  0  0  0  0  0  0  0  0
  -14.6610   -1.3362   -1.1738 H   0  0  0  0  0  0  0  0  0  0  0  0
   -4.4931    3.1022   -1.4159 N   0  0  0  0  0  0  0  0  0  0  0  0
   -4.8301    2.0219   -1.1362 C   0  0  0  0  0  0  0  0  0  0  0  0
   -5.2609    0.6981   -0.8325 C   0  0  0  0  0  0  0  0  0  0  0  0
   -6.6220    0.4326   -0.9271 C   0  0  0  0  0  0  0  0  0  0  0  0
   -7.1401   -0.8446   -0.7251 C   0  0  0  0  0  0  0  0  0  0  0  0
   -6.2648   -1.8518   -0.4251 C   0  0  0  0  0  0  0  0  0  0  0  0
   -4.9135   -1.5817   -0.3310 C   0  0  0  0  0  0  0  0  0  0  0  0
   -4.3869   -0.3080   -0.5308 C   0  0  0  0  0  0  0  0  0  0  0  0
   -7.3169    1.2247   -1.1655 H   0  0  0  0  0  0  0  0  0  0  0  0
   -6.6018   -2.8820   -0.2530 H   0  0  0  0  0  0  0  0  0  0  0  0
   -4.2426   -2.3946   -0.0940 H   0  0  0  0  0  0  0  0  0  0  0  0
   -2.9284   -0.1635   -0.4736 C   0  0  0  0  0  0  0  0  0  0  0  0
   -2.2762    0.9118    0.0653 C   0  0  0  0  0  0  0  0  0  0  0  0
   -0.9277    0.9798    0.1188 N   0  0  0  0  0  0  0  0  0  0  0  0
   -0.1415   -0.0292   -0.3652 C   0  0  0  0  0  0  0  0  0  0  0  0
   -0.8234   -1.0957   -0.8949 C   0  0  0  0  0  0  0  0  0  0  0  0
   -2.1553   -1.1904   -0.9608 N   0  0  0  0  0  0  0  0  0  0  0  0
   -2.8621    1.7358    0.5092 H   0  0  0  0  0  0  0  0  0  0  0  0
   -0.2496   -1.9204   -1.2886 H   0  0  0  0  0  0  0  0  0  0  0  0
    4.3826    3.3728    1.5173 N   0  0  0  0  0  0  0  0  0  0  0  0
    3.8859    2.4663    0.9584 C   0  0  0  0  0  0  0  0  0  0  0  0
    3.2628    1.3559    0.2985 C   0  0  0  0  0  0  0  0  0  0  0  0
    1.9005    1.1811    0.2900 C   0  0  0  0  0  0  0  0  0  0  0  0
    1.3018    0.0942   -0.3163 C   0  0  0  0  0  0  0  0  0  0  0  0
    2.1285   -0.8066   -0.9088 C   0  0  0  0  0  0  0  0  0  0  0  0
    3.5065   -0.6801   -0.9316 C   0  0  0  0  0  0  0  0  0  0  0  0
    4.0977    0.4063   -0.3289 C   0  0  0  0  0  0  0  0  0  0  0  0
    1.2477    1.9021    0.7632 H   0  0  0  0  0  0  0  0  0  0  0  0
    1.7470   -1.6943   -1.4066 H   0  0  0  0  0  0  0  0  0  0  0  0
    4.1259   -1.4258   -1.4202 H   0  0  0  0  0  0  0  0  0  0  0  0
    5.5263    0.6846   -0.3789 C   0  0  0  0  0  0  0  0  0  0  0  0
    5.9332    1.9016   -0.9220 C   0  0  0  0  0  0  0  0  0  0  0  0
    7.2597    2.2537   -1.0393 C   0  0  0  0  0  0  0  0  0  0  0  0
    8.2304    1.3696   -0.6045 C   0  0  0  0  0  0  0  0  0  0  0  0
    9.5583    1.7443   -0.7276 C   0  0  0  0  0  0  0  0  0  0  0  0
   10.5712    0.9162   -0.3121 C   0  0  0  0  0  0  0  0  0  0  0  0
   10.2211   -0.2994    0.2307 C   0  0  0  0  0  0  0  0  0  0  0  0
   11.2142   -1.1480    0.6452 C   0  0  0  0  0  0  0  0  0  0  0  0
   10.8581   -2.3660    1.1755 C   0  0  0  0  0  0  0  0  0  0  0  0
    9.5393   -2.7524    1.3034 C   0  0  0  0  0  0  0  0  0  0  0  0
    8.5332   -1.8991    0.8894 C   0  0  0  0  0  0  0  0  0  0  0  0
    7.2030   -2.2440    1.0010 C   0  0  0  0  0  0  0  0  0  0  0  0
    6.2053   -1.4028    0.5902 C   0  0  0  0  0  0  0  0  0  0  0  0
    6.5048   -0.1670    0.0403 C   0  0  0  0  0  0  0  0  0  0  0  0
    7.8512    0.1584   -0.0647 C   0  0  0  0  0  0  0  0  0  0  0  0
    8.8741   -0.6873    0.3588 C   0  0  0  0  0  0  0  0  0  0  0  0
    5.1766    2.5718   -1.2768 H   0  0  0  0  0  0  0  0  0  0  0  0
    7.5422    3.2090   -1.4674 H   0  0  0  0  0  0  0  0  0  0  0  0
    9.8516    2.7153   -1.1624 H   0  0  0  0  0  0  0  0  0  0  0  0
   11.6108    1.1819   -0.4024 H   0  0  0  0  0  0  0  0  0  0  0  0
   11.6443   -3.0281    1.4943 H   0  0  0  0  0  0  0  0  0  0  0  0
    9.2432   -3.7046    1.7187 H   0  0  0  0  0  0  0  0  0  0  0  0
    6.9865   -3.2164    1.4297 H   0  0  0  0  0  0  0  0  0  0  0  0
    5.1716   -1.6709    0.6965 H   0  0  0  0  0  0  0  0  0  0  0  0
   16.4434   -1.9725   -1.9495 N   0  0  0  0  0  0  0  0  0  0  0  0
   15.7663   -1.5177   -1.1335 C   0  0  0  0  0  0  0  0  0  0  0  0
   14.8782   -0.9270   -0.1376 C   0  0  0  0  0  0  0  0  0  0  0  0
   13.5489   -1.3107   -0.2080 C   0  0  0  0  0  0  0  0  0  0  0  0
   12.5968   -0.7659    0.6110 C   0  0  0  0  0  0  0  0  0  0  0  0
   13.0452    0.2028    1.5249 C   0  0  0  0  0  0  0  0  0  0  0  0
   14.3568    0.5602    1.5755 C   0  0  0  0  0  0  0  0  0  0  0  0
   15.3498    0.0022    0.7354 C   0  0  0  0  0  0  0  0  0  0  0  0
   13.2300   -2.0643   -0.9305 H   0  0  0  0  0  0  0  0  0  0  0  0
   12.3336    0.6518    2.1790 H   0  0  0  0  0  0  0  0  0  0  0  0
   14.6866    1.3072    2.2879 H   0  0  0  0  0  0  0  0  0  0  0  0
   16.7165    0.4885    0.8743 C   0  0  0  0  0  0  0  0  0  0  0  0
   17.8724   -0.1660    0.6564 C   0  0  0  0  0  0  0  0  0  0  0  0
   19.0904    0.4076    0.9157 N   0  0  0  0  0  0  0  0  0  0  0  0
   19.1622    1.6550    1.4033 C   0  0  0  0  0  0  0  0  0  0  0  0
   17.9923    2.3568    1.6410 C   0  0  0  0  0  0  0  0  0  0  0  0
   16.8389    1.7630    1.3746 N   0  0  0  0  0  0  0  0  0  0  0  0
   17.8765   -1.1798    0.3075 H   0  0  0  0  0  0  0  0  0  0  0  0
   18.0587    3.3753    2.0411 H   0  0  0  0  0  0  0  0  0  0  0  0
  -19.3588    0.5038   -0.6691 H   0  0  0  0  0  0  0  0  0  0  0  0
   20.1040    2.1485    1.6252 H   0  0  0  0  0  0  0  0  0  0  0  0
  1  2  3  0
  2  3  1  0
  3  4  2  0
  4  5  1  0
  5  6  2  0
  6  7  1  0
  7  8  2  0
  8  3  1  0
  4  9  1  0
  6 10  1  0
  7 11  1  0
 12 13  2  0
 13 14  1  0
 14 15  2  0
 15 16  1  0
 16 17  2  0
 17 18  1  0
 18 19  2  0
 19 20  1  0
 20 21  2  0
 21 22  1  0
 22 23  2  0
 23 24  1  0
 24 25  2  0
 25 26  1  0
 26 27  2  0
 25 12  1  0
 26 15  1  0
 27 18  1  0
 27 22  1  0
 13 28  1  0
 14 29  1  0
 16 30  1  0
 17 31  1  0
 20 32  1  0
 21 33  1  0
 23 34  1  0
 24 35  1  0
 36 37  3  0
 37 38  1  0
 38 39  2  0
 39 40  1  0
 40 41  2  0
 41 42  1  0
 42 43  2  0
 43 38  1  0
 39 44  1  0
 41 45  1  0
 42 46  1  0
 47 48  2  0
 48 49  1  0
 49 50  2  0
 50 51  1  0
 51 52  2  0
 52 47  1  0
 48 53  1  0
 51 54  1  0
 55 56  3  0
 56 57  1  0
 57 58  2  0
 58 59  1  0
 59 60  2  0
 60 61  1  0
 61 62  2  0
 62 57  1  0
 58 63  1  0
 60 64  1  0
 61 65  1  0
 66 67  2  0
 67 68  1  0
 68 69  2  0
 69 70  1  0
 70 71  2  0
 71 72  1  0
 72 73  2  0
 73 74  1  0
 74 75  2  0
 75 76  1  0
 76 77  2  0
 77 78  1  0
 78 79  2  0
 79 80  1  0
 80 81  2  0
 79 66  1  0
 80 69  1  0
 81 72  1  0
 81 76  1  0
 67 82  1  0
 68 83  1  0
 70 84  1  0
 71 85  1  0
 74 86  1  0
 75 87  1  0
 77 88  1  0
 78 89  1  0
 90 91  3  0
 91 92  1  0
 92 93  2  0
 93 94  1  0
 94 95  2  0
 95 96  1  0
 96 97  2  0
 97 92  1  0
 93 98  1  0
 95 99  1  0
 96100  1  0
101102  2  0
102103  1  0
103104  2  0
104105  1  0
105106  2  0
106101  1  0
102107  1  0
105108  1  0
  8 12  1  0
 19 40  1  0
 43 47  1  0
 50 59  1  0
 62 66  1  0
 73 94  1  0
 97101  1  0
  5109  1  0
104110  1  0
M  END
