110

N        -15.87940       -0.26330        3.78980
C        -16.19760       -0.03150        2.68690
C        -16.59160        0.22650        1.33550
C        -17.91480        0.24200        0.94870
C        -18.32100        0.48380       -0.34220
C        -17.33840        0.72430       -1.30530
C        -16.01590        0.71280       -0.93740
C        -15.61250        0.47020        0.36290
H        -18.71640        0.05960        1.67150
H        -17.65980        0.91490       -2.32580
H        -15.28120        0.90450       -1.71820
C        -14.20230        0.56200        0.67610
C        -13.80820        1.50710        1.64040
C        -12.47690        1.68150        1.86980
C        -11.49680        0.97320        1.19950
C        -10.17310        1.20450        1.45620
C         -9.20190        0.51870        0.77970
C         -9.52880       -0.42440       -0.17950
C         -8.56110       -1.12520       -0.85780
C         -8.98780       -2.07500       -1.79330
C        -10.31680       -2.28430       -2.01680
C        -11.29930       -1.57660       -1.34060
C        -12.62980       -1.78500       -1.58140
C        -13.62860       -1.09510       -0.93450
C        -13.25410       -0.15670        0.00060
C        -11.88920        0.04720        0.25890
C        -10.88310       -0.63790       -0.41410
H        -14.57650        2.05240        2.15620
H        -12.17330        2.40500        2.61260
H         -9.89380        1.92980        2.19120
H         -8.15150        0.69550        1.00900
H         -8.21700       -2.62580       -2.31800
H        -10.60470       -3.01930       -2.73480
H        -12.90490       -2.53560       -2.32240
H        -14.66100       -1.33620       -1.17380
N         -4.49310        3.10220       -1.41590
C         -4.83010        2.02190       -1.13620
C         -5.26090        0.69810       -0.83250
C         -6.62200        0.43260       -0.92710
C         -7.14010       -0.84460       -0.72510
C         -6.26480       -1.85180       -0.42510
C         -4.91350       -1.58170       -0.33100
C         -4.38690       -0.30800       -0.53080
H         -7.31690        1.22470       -1.16550
H         -6.60180       -2.88200       -0.25300
H         -4.24260       -2.39460       -0.09400
C         -2.92840       -0.16350       -0.47360
C         -2.27620        0.91180        0.06530
N         -0.92770        0.97980        0.11880
C         -0.14150       -0.02920       -0.36520
C         -0.82340       -1.09570       -0.89490
N         -2.15530       -1.19040       -0.96080
H         -2.86210        1.73580        0.50920
H         -0.24960       -1.92040       -1.28860
N          4.38260        3.37280        1.51730
C          3.88590        2.46630        0.95840
C          3.26280        1.35590        0.29850
C          1.90050        1.18110        0.29000
C          1.30180        0.09420       -0.31630
C          2.12850       -0.80660       -0.90880
C          3.50650       -0.68010       -0.93160
C          4.09770        0.40630       -0.32890
H          1.24770        1.90210        0.76320
H          1.74700       -1.69430       -1.40660
H          4.12590       -1.42580       -1.42020
C          5.52630        0.68460       -0.37890
C          5.93320        1.90160       -0.92200
C          7.25970        2.25370       -1.03930
C          8.23040        1.36960       -0.60450
C          9.55830        1.74430       -0.72760
C         10.57120        0.91620       -0.31210
C         10.22110       -0.29940        0.23070
C         11.21420       -1.14800        0.64520
C         10.85810       -2.36600        1.17550
C          9.53930       -2.75240        1.30340
C          8.53320       -1.89910        0.88940
C          7.20300       -2.24400        1.00100
C          6.20530       -1.40280        0.59020
C          6.50480       -0.16700        0.04030
C          7.85120        0.15840       -0.06470
C          8.87410       -0.68730        0.35880
H          5.17660        2.57180       -1.27680
H          7.54220        3.20900       -1.46740
H          9.85160        2.71530       -1.16240
H         11.61080        1.18190       -0.40240
H         11.64430       -3.02810        1.49430
H          9.24320       -3.70460        1.71870
H          6.98650       -3.21640        1.42970
H          5.17160       -1.67090        0.69650
N         16.44340       -1.97250       -1.94950
C         15.76630       -1.51770       -1.13350
C         14.87820       -0.92700       -0.13760
C         13.54890       -1.31070       -0.20800
C         12.59680       -0.76590        0.61100
C         13.04520        0.20280        1.52490
C         14.35680        0.56020        1.57550
C         15.34980        0.00220        0.73540
H         13.23000       -2.06430       -0.93050
H         12.33360        0.65180        2.17900
H         14.68660        1.30720        2.28790
C         16.71650        0.48850        0.87430
C         17.87240       -0.16600        0.65640
N         19.09040        0.40760        0.91570
C         19.16220        1.65500        1.40330
C         17.99230        2.35680        1.64100
N         16.83890        1.76300        1.37460
H         17.87650       -1.17980        0.30750
H         18.05870        3.37530        2.04110
H        -19.35880        0.50380       -0.66910
H         20.10400        2.14850        1.62520
