110

N        -15.79980       -1.64540        3.58370
C        -16.22140       -1.49350        2.52410
C        -16.74350       -1.28000        1.20940
C        -18.10400       -1.19390        1.02310
C        -18.65300       -0.98450       -0.22970
C        -17.80740       -0.86110       -1.30480
C        -16.44000       -0.95020       -1.10000
C        -15.88750       -1.15730        0.13470
H        -18.80760       -1.28690        1.85780
H        -18.18770       -0.69750       -2.30350
H        -15.81700       -0.84530       -1.99990
C        -14.44940       -1.31090        0.28150
C        -13.97480       -2.51130        0.84790
C        -12.62960       -2.72430        0.96120
C        -11.69820       -1.79040        0.53420
C        -10.35240       -2.01250        0.66260
C         -9.40850       -1.06960        0.24220
C         -9.80980        0.12390       -0.32180
C         -8.88680        1.05530       -0.70300
C         -9.37380        2.26880       -1.22970
C        -10.72190        2.48990       -1.35240
C        -11.63690        1.52020       -0.95860
C        -12.98770        1.75290       -1.07060
C        -13.91560        0.80180       -0.66370
C        -13.50450       -0.40270       -0.13180
C        -12.12900       -0.60830       -0.02210
C        -11.19000        0.32400       -0.43790
H        -14.70190       -3.23820        1.18090
H        -12.27050       -3.64750        1.39640
H        -10.02750       -2.93800        1.09900
H         -8.37080       -1.26090        0.39540
H         -8.67220        3.02060       -1.53510
H        -11.13820        3.40960       -1.75270
H        -13.30470        2.69800       -1.48530
H        -14.96940        1.00930       -0.74520
C         -7.44380        0.92120       -0.56590
C         -6.67320       -0.12870       -0.98590
N         -5.32620       -0.08720       -0.87990
C         -4.65620        0.96650       -0.36530
C         -5.45190        2.01610        0.05060
N         -6.77960        1.99840       -0.04330
H         -7.15970       -1.00280       -1.44280
H         -4.93390        2.89860        0.47590
N          0.10230        3.93640        1.54410
C         -0.43720        3.05070        0.99890
C         -1.10910        1.97580        0.36340
C         -2.50530        1.99870        0.30290
C         -3.20270        0.97500       -0.27280
C         -2.47480       -0.07580       -0.78930
C         -1.08680       -0.09840       -0.73040
C         -0.38680        0.92590       -0.15420
H         -3.00220        2.85150        0.72930
H         -2.97420       -0.91250       -1.25590
H         -0.57730       -0.93930       -1.14820
N          4.39750        4.23280       -1.34540
C          3.85610        3.29100       -0.92620
C          3.18510        2.13390       -0.41630
C          1.79100        2.05550       -0.52950
C          1.06760        0.97660       -0.07630
C          1.79070       -0.06220        0.51150
C          3.15900        0.02520        0.61730
C          3.89020        1.10210        0.16880
H          1.27380        2.86110       -1.00000
H          1.24780       -0.92370        0.87550
H          3.74860       -0.77920        1.07680
C          5.32330        1.26580        0.33660
C          5.76660        2.38080        1.05530
C          7.10340        2.57720        1.31630
C          8.05710        1.68210        0.87920
C          9.39120        1.86850        1.13660
C         10.35930        0.95750        0.69560
C          9.95710       -0.15740       -0.01480
C         10.89230       -1.04800       -0.47540
C         10.39830       -2.13660       -1.22840
C          9.08900       -2.33130       -1.49820
C          8.16590       -1.42580       -1.01900
C          6.84080       -1.63140       -1.29940
C          5.89960       -0.73150       -0.83630
C          6.27640        0.37860       -0.09780
C          7.63790        0.56420        0.16040
C          8.58830       -0.32650       -0.27000
H          5.02840        3.08370        1.41020
H          7.42480        3.45990        1.88170
H          9.71030        2.75150        1.70190
H         11.39610        1.17510        0.88170
H         11.14020       -2.83010       -1.59170
H          8.79140       -3.19860       -2.08790
H          6.51200       -2.50000       -1.88630
H          4.84900       -0.86370       -1.04910
C         12.32180       -0.96240       -0.25430
C         12.96440       -0.71830        0.92940
N         14.30850       -0.76830        1.06020
C         15.10940       -1.06650        0.02240
C         14.49110       -1.31710       -1.17570
N         13.15820       -1.26570       -1.30060
H         12.37250       -0.50920        1.83520
H         15.10290       -1.56360       -2.04510
N         20.55760       -1.98900       -2.36680
C         19.76790       -1.73710       -1.55350
C         18.80190       -1.43210       -0.52120
C         17.43550       -1.40270       -0.77490
C         16.55960       -1.11110        0.22320
C         17.10130       -0.85000        1.48480
C         18.42880       -0.86980        1.76730
C         19.30240       -1.16710        0.74500
H         17.11330       -1.61740       -1.77280
H         16.38930       -0.61650        2.27660
H         18.74830       -0.65340        2.77320
H        -19.72530       -0.91260       -0.40740
H         20.35610       -1.18160        0.97810
