
     RDKit          3D

110123  0  0  0  0  0  0  0  0999 V2000
  -15.7998   -1.6454    3.5837 N   0  0  0  0  0  0  0  0  0  0  0  0
  -16.2214   -1.4935    2.5241 C   0  0  0  0  0  0  0  0  0  0  0  0
  -16.7435   -1.2800    1.2094 C   0  0  0  0  0  0  0  0  0  0  0  0
  -18.1040   -1.1939    1.0231 C   0  0  0  0  0  0  0  0  0  0  0  0
  -18.6530   -0.9845   -0.2297 C   0  0  0  0  0  0  0  0  0  0  0  0
  -17.8074   -0.8611   -1.3048 C   0  0  0  0  0  0  0  0  0  0  0  0
  -16.4400   -0.9502   -1.1000 C   0  0  0  0  0  0  0  0  0  0  0  0
  -15.8875   -1.1573    0.1347 C   0  0  0  0  0  0  0  0  0  0  0  0
  -18.8076   -1.2869    1.8578 H   0  0  0  0  0  0  0  0  0  0  0  0
  -18.1877   -0.6975   -2.3035 H   0  0  0  0  0  0  0  0  0  0  0  0
  -15.8170   -0.8453   -1.9999 H   0  0  0  0  0  0  0  0  0  0  0  0
  -14.4494   -1.3109    0.2815 C   0  0  0  0  0  0  0  0  0  0  0  0
  -13.9748   -2.5113    0.8479 C   0  0  0  0  0  0  0  0  0  0  0  0
  -12.6296   -2.7243    0.9612 C   0  0  0  0  0  0  0  0  0  0  0  0
  -11.6982   -1.7904    0.5342 C   0  0  0  0  0  0  0  0  0  0  0  0
  -10.3524   -2.0125    0.6626 C   0  0  0  0  0  0  0  0  0  0  0  0
   -9.4085   -1.0696    0.2422 C   0  0  0  0  0  0  0  0  0  0  0  0
   -9.8098    0.1239   -0.3218 C   0  0  0  0  0  0  0  0  0  0  0  0
   -8.8868    1.0553   -0.7030 C   0  0  0  0  0  0  0  0  0  0  0  0
   -9.3738    2.2688   -1.2297 C   0  0  0  0  0  0  0  0  0  0  0  0
  -10.7219    2.4899   -1.3524 C   0  0  0  0  0  0  0  0  0  0  0  0
  -11.6369    1.5202   -0.9586 C   0  0  0  0  0  0  0  0  0  0  0  0
  -12.9877    1.7529   -1.0706 C   0  0  0  0  0  0  0  0  0  0  0  0
  -13.9156    0.8018   -0.6637 C   0  0  0  0  0  0  0  0  0  0  0  0
  -13.5045   -0.4027   -0.1318 C   0  0  0  0  0  0  0  0  0  0  0  0
  -12.1290   -0.6083   -0.0221 C   0  0  0  0  0  0  0  0  0  0  0  0
  -11.1900    0.3240   -0.4379 C   0  0  0  0  0  0  0  0  0  0  0  0
  -14.7019   -3.2382    1.1809 H   0  0  0  0  0  0  0  0  0  0  0  0
  -12.2705   -3.6475    1.3964 H   0  0  0  0  0  0  0  0  0  0  0  0
  -10.0275   -2.9380    1.0990 H   0  0  0  0  0  0  0  0  0  0  0  0
   -8.3708   -1.2609    0.3954 H   0  0  0  0  0  0  0  0  0  0  0  0
   -8.6722    3.0206   -1.5351 H   0  0  0  0  0  0  0  0  0  0  0  0
  -11.1382    3.4096   -1.7527 H   0  0  0  0  0  0  0  0  0  0  0  0
  -13.3047    2.6980   -1.4853 H   0  0  0  0  0  0  0  0  0  0  0  0
  -14.9694    1.0093   -0.7452 H   0  0  0  0  0  0  0  0  0  0  0  0
   -7.4438    0.9212   -0.5659 C   0  0  0  0  0  0  0  0  0  0  0  0
   -6.6732   -0.1287   -0.9859 C   0  0  0  0  0  0  0  0  0  0  0  0
   -5.3262   -0.0872   -0.8799 N   0  0  0  0  0  0  0  0  0  0  0  0
   -4.6562    0.9665   -0.3653 C   0  0  0  0  0  0  0  0  0  0  0  0
   -5.4519    2.0161    0.0506 C   0  0  0  0  0  0  0  0  0  0  0  0
   -6.7796    1.9984   -0.0433 N   0  0  0  0  0  0  0  0  0  0  0  0
   -7.1597   -1.0028   -1.4428 H   0  0  0  0  0  0  0  0  0  0  0  0
   -4.9339    2.8986    0.4759 H   0  0  0  0  0  0  0  0  0  0  0  0
    0.1023    3.9364    1.5441 N   0  0  0  0  0  0  0  0  0  0  0  0
   -0.4372    3.0507    0.9989 C   0  0  0  0  0  0  0  0  0  0  0  0
   -1.1091    1.9758    0.3634 C   0  0  0  0  0  0  0  0  0  0  0  0
   -2.5053    1.9987    0.3029 C   0  0  0  0  0  0  0  0  0  0  0  0
   -3.2027    0.9750   -0.2728 C   0  0  0  0  0  0  0  0  0  0  0  0
   -2.4748   -0.0758   -0.7893 C   0  0  0  0  0  0  0  0  0  0  0  0
   -1.0868   -0.0984   -0.7304 C   0  0  0  0  0  0  0  0  0  0  0  0
   -0.3868    0.9259   -0.1542 C   0  0  0  0  0  0  0  0  0  0  0  0
   -3.0022    2.8515    0.7293 H   0  0  0  0  0  0  0  0  0  0  0  0
   -2.9742   -0.9125   -1.2559 H   0  0  0  0  0  0  0  0  0  0  0  0
   -0.5773   -0.9393   -1.1482 H   0  0  0  0  0  0  0  0  0  0  0  0
    4.3975    4.2328   -1.3454 N   0  0  0  0  0  0  0  0  0  0  0  0
    3.8561    3.2910   -0.9262 C   0  0  0  0  0  0  0  0  0  0  0  0
    3.1851    2.1339   -0.4163 C   0  0  0  0  0  0  0  0  0  0  0  0
    1.7910    2.0555   -0.5295 C   0  0  0  0  0  0  0  0  0  0  0  0
    1.0676    0.9766   -0.0763 C   0  0  0  0  0  0  0  0  0  0  0  0
    1.7907   -0.0622    0.5115 C   0  0  0  0  0  0  0  0  0  0  0  0
    3.1590    0.0252    0.6173 C   0  0  0  0  0  0  0  0  0  0  0  0
    3.8902    1.1021    0.1688 C   0  0  0  0  0  0  0  0  0  0  0  0
    1.2738    2.8611   -1.0000 H   0  0  0  0  0  0  0  0  0  0  0  0
    1.2478   -0.9237    0.8755 H   0  0  0  0  0  0  0  0  0  0  0  0
    3.7486   -0.7792    1.0768 H   0  0  0  0  0  0  0  0  0  0  0  0
    5.3233    1.2658    0.3366 C   0  0  0  0  0  0  0  0  0  0  0  0
    5.7666    2.3808    1.0553 C   0  0  0  0  0  0  0  0  0  0  0  0
    7.1034    2.5772    1.3163 C   0  0  0  0  0  0  0  0  0  0  0  0
    8.0571    1.6821    0.8792 C   0  0  0  0  0  0  0  0  0  0  0  0
    9.3912    1.8685    1.1366 C   0  0  0  0  0  0  0  0  0  0  0  0
   10.3593    0.9575    0.6956 C   0  0  0  0  0  0  0  0  0  0  0  0
    9.9571   -0.1574   -0.0148 C   0  0  0  0  0  0  0  0  0  0  0  0
   10.8923   -1.0480   -0.4754 C   0  0  0  0  0  0  0  0  0  0  0  0
   10.3983   -2.1366   -1.2284 C   0  0  0  0  0  0  0  0  0  0  0  0
    9.0890   -2.3313   -1.4982 C   0  0  0  0  0  0  0  0  0  0  0  0
    8.1659   -1.4258   -1.0190 C   0  0  0  0  0  0  0  0  0  0  0  0
    6.8408   -1.6314   -1.2994 C   0  0  0  0  0  0  0  0  0  0  0  0
    5.8996   -0.7315   -0.8363 C   0  0  0  0  0  0  0  0  0  0  0  0
    6.2764    0.3786   -0.0978 C   0  0  0  0  0  0  0  0  0  0  0  0
    7.6379    0.5642    0.1604 C   0  0  0  0  0  0  0  0  0  0  0  0
    8.5883   -0.3265   -0.2700 C   0  0  0  0  0  0  0  0  0  0  0  0
    5.0284    3.0837    1.4102 H   0  0  0  0  0  0  0  0  0  0  0  0
    7.4248    3.4599    1.8817 H   0  0  0  0  0  0  0  0  0  0  0  0
    9.7103    2.7515    1.7019 H   0  0  0  0  0  0  0  0  0  0  0  0
   11.3961    1.1751    0.8817 H   0  0  0  0  0  0  0  0  0  0  0  0
   11.1402   -2.8301   -1.5917 H   0  0  0  0  0  0  0  0  0  0  0  0
    8.7914   -3.1986   -2.0879 H   0  0  0  0  0  0  0  0  0  0  0  0
    6.5120   -2.5000   -1.8863 H   0  0  0  0  0  0  0  0  0  0  0  0
    4.8490   -0.8637   -1.0491 H   0  0  0  0  0  0  0  0  0  0  0  0
   12.3218   -0.9624   -0.2543 C   0  0  0  0  0  0  0  0  0  0  0  0
   12.9644   -0.7183    0.9294 C   0  0  0  0  0  0  0  0  0  0  0  0
   14.3085   -0.7683    1.0602 N   0  0  0  0  0  0  0  0  0  0  0  0
   15.1094   -1.0665    0.0224 C   0  0  0  0  0  0  0  0  0  0  0  0
   14.4911   -1.3171   -1.1757 C   0  0  0  0  0  0  0  0  0  0  0  0
   13.1582   -1.2657   -1.3006 N   0  0  0  0  0  0  0  0  0  0  0  0
   12.3725   -0.5092    1.8352 H   0  0  0  0  0  0  0  0  0  0  0  0
   15.1029   -1.5636   -2.0451 H   0  0  0  0  0  0  0  0  0  0  0  0
   20.5576   -1.9890   -2.3668 N   0  0  0  0  0  0  0  0  0  0  0  0
   19.7679   -1.7371   -1.5535 C   0  0  0  0  0  0  0  0  0  0  0  0
   18.8019   -1.4321   -0.5212 C   0  0  0  0  0  0  0  0  0  0  0  0
   17.4355   -1.4027   -0.7749 C   0  0  0  0  0  0  0  0  0  0  0  0
   16.5596   -1.1111    0.2232 C   0  0  0  0  0  0  0  0  0  0  0  0
   17.1013   -0.8500    1.4848 C   0  0  0  0  0  0  0  0  0  0  0  0
   18.4288   -0.8698    1.7673 C   0  0  0  0  0  0  0  0  0  0  0  0
   19.3024   -1.1671    0.7450 C   0  0  0  0  0  0  0  0  0  0  0  0
   17.1133   -1.6174   -1.7728 H   0  0  0  0  0  0  0  0  0  0  0  0
   16.3893   -0.6165    2.2766 H   0  0  0  0  0  0  0  0  0  0  0  0
   18.7483   -0.6534    2.7732 H   0  0  0  0  0  0  0  0  0  0  0  0
  -19.7253   -0.9126   -0.4074 H   0  0  0  0  0  0  0  0  0  0  0  0
   20.3561   -1.1816    0.9781 H   0  0  0  0  0  0  0  0  0  0  0  0
  1  2  3  0
  2  3  1  0
  3  4  2  0
  4  5  1  0
  5  6  2  0
  6  7  1  0
  7  8  2  0
  8  3  1  0
  4  9  1  0
  6 10  1  0
  7 11  1  0
 12 13  2  0
 13 14  1  0
 14 15  2  0
 15 16  1  0
 16 17  2  0
 17 18  1  0
 18 19  2  0
 19 20  1  0
 20 21  2  0
 21 22  1  0
 22 23  2  0
 23 24  1  0
 24 25  2  0
 25 26  1  0
 26 27  2  0
 25 12  1  0
 26 15  1  0
 27 18  1  0
 27 22  1  0
 13 28  1  0
 14 29  1  0
 16 30  1  0
 17 31  1  0
 20 32  1  0
 21 33  1  0
 23 34  1  0
 24 35  1  0
 36 37  2  0
 37 38  1  0
 38 39  2  0
 39 40  1  0
 40 41  2  0
 41 36  1  0
 37 42  1  0
 40 43  1  0
 44 45  3  0
 45 46  1  0
 46 47  2  0
 47 48  1  0
 48 49  2  0
 49 50  1  0
 50 51  2  0
 51 46  1  0
 47 52  1  0
 49 53  1  0
 50 54  1  0
 55 56  3  0
 56 57  1  0
 57 58  2  0
 58 59  1  0
 59 60  2  0
 60 61  1  0
 61 62  2  0
 62 57  1  0
 58 63  1  0
 60 64  1  0
 61 65  1  0
 66 67  2  0
 67 68  1  0
 68 69  2  0
 69 70  1  0
 70 71  2  0
 71 72  1  0
 72 73  2  0
 73 74  1  0
 74 75  2  0
 75 76  1  0
 76 77  2  0
 77 78  1  0
 78 79  2  0
 79 80  1  0
 80 81  2  0
 79 66  1  0
 80 69  1  0
 81 72  1  0
 81 76  1  0
 67 82  1  0
 68 83  1  0
 70 84  1  0
 71 85  1  0
 74 86  1  0
 75 87  1  0
 77 88  1  0
 78 89  1  0
 90 91  2  0
 91 92  1  0
 92 93  2  0
 93 94  1  0
 94 95  2  0
 95 90  1  0
 91 96  1  0
 94 97  1  0
 98 99  3  0
 99100  1  0
100101  2  0
101102  1  0
102103  2  0
103104  1  0
104105  2  0
105100  1  0
101106  1  0
103107  1  0
104108  1  0
  8 12  1  0
 19 36  1  0
 39 48  1  0
 51 59  1  0
 62 66  1  0
 73 90  1  0
 93102  1  0
  5109  1  0
105110  1  0
M  END
