150

O        -22.93490       -2.62200        3.42320
S        -23.36660       -1.97780        2.15720
O        -23.79240       -0.54120        2.36590
C        -24.65710       -2.87280        1.35600
C        -25.93480       -3.21150        1.79830
C        -26.76070       -3.91870        0.95910
C        -26.28930       -4.25960       -0.27960
C        -25.03620       -3.92500       -0.70870
C        -24.15600       -3.20060        0.12010
C        -22.81870       -2.76760       -0.14180
C        -22.03170       -2.95340       -1.30790
C        -20.75820       -2.47610       -1.39680
C        -20.16870       -1.79810       -0.38080
C        -20.93520       -1.61230        0.77180
C        -22.20740       -2.08440        0.86870
H        -26.21770       -2.90740        2.78490
H        -26.96340       -4.82240       -0.92820
H        -24.72850       -4.23390       -1.71450
H        -22.43150       -3.48150       -2.15620
H        -20.20250       -2.64900       -2.30990
H        -20.47120       -1.07870        1.58350
O        -15.24850       -1.74490       -3.59810
S        -15.07380       -1.82470       -2.12070
O        -14.67200       -3.20740       -1.68080
C        -16.53710       -1.31910       -1.25840
C        -17.81890       -1.85410       -1.23380
C        -18.81770       -1.27030       -0.48530
C        -18.44800       -0.13850        0.21730
C        -17.18810        0.40810        0.20690
C        -16.16900       -0.20480       -0.56440
C        -14.79840        0.19270       -0.68260
C        -14.11710        1.25550       -0.06140
C        -12.80000        1.46230       -0.24910
C        -12.01540        0.64430       -1.07040
C        -12.66390       -0.37740       -1.67280
C        -14.02130       -0.60180       -1.48570
H        -18.00940       -2.74070       -1.81280
H        -19.24910        0.33490        0.80690
H        -16.99190        1.30150        0.79100
H        -14.66720        1.92780        0.59200
H        -12.31910        2.30370        0.25530
H        -12.09690       -1.03450       -2.32400
C        -10.59100        0.92200       -1.13120
C         -9.69940        0.41180       -2.03590
N         -8.38440        0.77610       -1.97440
C         -7.88160        1.61470       -1.07590
C         -8.79000        2.13850       -0.15190
N        -10.06280        1.78170       -0.21820
H        -10.06340       -0.26480       -2.77580
H         -8.44370        2.83320        0.58700
C         -6.50070        2.04180       -1.10800
C         -5.94100        2.54250       -2.26010
C         -4.64450        2.93660       -2.27680
C         -3.82840        2.85240       -1.14550
C         -2.51340        3.25350       -1.21560
C         -1.70980        3.15170       -0.09040
C         -2.21980        2.65260        1.08780
C         -1.40320        2.51690        2.21620
C         -1.94000        1.98730        3.36260
C         -3.25920        1.58850        3.42150
C         -4.06130        1.72470        2.29850
C         -5.38280        1.31640        2.31120
C         -6.21250        1.42080        1.18930
C         -5.70950        1.94440        0.03160
C         -4.37500        2.35170        0.01090
C         -3.56680        2.25200        1.12620
H         -6.56580        2.61770       -3.16720
H         -4.22680        3.33220       -3.19960
H         -2.10690        3.64690       -2.13490
H         -0.67090        3.45560       -0.10050
H         -1.28600        1.89850        4.22300
H         -3.68740        1.17060        4.31120
H         -5.75190        0.90710        3.23540
H         -7.19720        1.03540        1.33580
O          3.57590        0.17240        0.75430
S          3.65930        1.06610        1.94710
O          3.81460        0.29870        3.22300
C          2.27070        2.15070        2.02130
C          0.91820        1.86960        2.08860
C          0.01650        2.90950        2.14610
C          0.48450        4.18310        2.13860
C          1.82420        4.44130        2.07260
C          2.79100        3.41710        2.00750
C          4.22500        3.49670        1.86190
C          5.03530        4.63640        1.74180
C          6.38550        4.52730        1.52740
C          7.03200        3.34200        1.41560
C          6.22100        2.20280        1.54060
C          4.87130        2.30670        1.75540
H          0.63020        0.83210        2.09030
H         -0.20090        5.02460        2.18780
H          2.17660        5.48530        2.07000
H          4.61340        5.62890        1.81140
H          6.97700        5.44520        1.43490
H          6.71640        1.25000        1.46220
O         11.90550        0.59050        3.17050
S         11.55520        0.54000        1.73660
O         10.95710       -0.79280        1.34700
C         10.45510        1.83300        1.25130
C          9.13890        2.09770        1.61390
C          8.44560        3.17080        1.09840
C          9.14810        3.95520        0.21210
C         10.44600        3.69900       -0.15120
C         11.15360        2.60570        0.36600
C         12.48090        2.15080        0.04410
C         13.39920        2.65260       -0.86560
C         14.60540        2.04140       -1.12330
C         14.96290        0.89710       -0.48610
C         14.05150        0.37320        0.44070
C         12.85430        0.99410        0.68390
H          8.65700        1.44010        2.32260
H          8.60940        4.81680       -0.19670
H         10.94170        4.38000       -0.86660
H         13.20080        3.57300       -1.43070
H         15.27090        2.51110       -1.86700
H         14.34800       -0.53630        0.93990
C         16.17990        0.18570       -0.81870
C         16.98270        0.43610       -1.90800
N         18.04250       -0.34480       -2.17540
C         18.38850       -1.41700       -1.39850
C         17.59880       -1.66190       -0.32190
N         16.53650       -0.88450       -0.05120
H         16.72790        1.27990       -2.52950
H         17.83040       -2.52840        0.31630
C         19.46740       -2.25420       -1.90310
C         19.39510       -2.58300       -3.27780
C         20.36190       -3.38660       -3.82210
C         21.39830       -3.87850       -3.07090
C         22.37630       -4.69930       -3.62790
C         23.42870       -5.20130       -2.87070
C         23.52120       -4.88470       -1.52560
C         24.58240       -5.37920       -0.80210
C         24.68100       -5.03900        0.55340
C         23.70840       -4.22840        1.09030
C         22.65190       -3.74840        0.33190
C         21.70530       -2.93500        0.91410
C         20.62820       -2.42820        0.17640
C         20.51690       -2.75360       -1.16960
C         21.48910       -3.56310       -1.71890
C         22.55070       -4.08130       -1.00880
H         18.56850       -2.17950       -3.83810
H         20.31680       -3.64800       -4.87610
H         22.29160       -4.93930       -4.68400
H         24.15790       -5.82700       -3.35690
H         25.50500       -5.40340        1.15620
H         23.78970       -3.96860        2.15160
H         21.76530       -2.66940        1.96100
H         19.92100       -1.77800        0.62700
H        -27.78340       -4.20390        1.28600
H         25.35530       -6.01380       -1.20820
