
     RDKit          3D

104117  0  0  0  0  0  0  0  0999 V2000
   17.5920    3.2451    0.7707 N   0  0  0  0  0  0  0  0  0  0  0  0
   17.7239    2.3150    0.1303 C   0  0  0  0  0  0  0  0  0  0  0  0
   17.9225    1.1195   -0.6532 C   0  0  0  0  0  0  0  0  0  0  0  0
   19.2403    0.8264   -1.0672 C   0  0  0  0  0  0  0  0  0  0  0  0
   19.5380   -0.3331   -1.7520 C   0  0  0  0  0  0  0  0  0  0  0  0
   18.5319   -1.2261   -2.0394 C   0  0  0  0  0  0  0  0  0  0  0  0
   17.2492   -0.9339   -1.6340 C   0  0  0  0  0  0  0  0  0  0  0  0
   16.9229    0.2419   -0.9368 C   0  0  0  0  0  0  0  0  0  0  0  0
   20.0126    1.5473   -0.8279 H   0  0  0  0  0  0  0  0  0  0  0  0
   18.7899   -2.1283   -2.5756 H   0  0  0  0  0  0  0  0  0  0  0  0
   16.4698   -1.6567   -1.8740 H   0  0  0  0  0  0  0  0  0  0  0  0
   15.5369    0.3820   -0.5489 C   0  0  0  0  0  0  0  0  0  0  0  0
   14.8093    1.5295   -0.4349 C   0  0  0  0  0  0  0  0  0  0  0  0
   13.4737    1.5239   -0.1308 N   0  0  0  0  0  0  0  0  0  0  0  0
   12.7995    0.3990    0.0707 C   0  0  0  0  0  0  0  0  0  0  0  0
   13.5190   -0.7813   -0.0402 C   0  0  0  0  0  0  0  0  0  0  0  0
   14.8124   -0.7735   -0.3339 N   0  0  0  0  0  0  0  0  0  0  0  0
   15.2771    2.5023   -0.6330 H   0  0  0  0  0  0  0  0  0  0  0  0
   12.9789   -1.7253    0.1241 H   0  0  0  0  0  0  0  0  0  0  0  0
   11.3785    0.3512    0.3685 C   0  0  0  0  0  0  0  0  0  0  0  0
   10.6331    1.5071    0.4275 C   0  0  0  0  0  0  0  0  0  0  0  0
    9.3076    1.4748    0.6703 N   0  0  0  0  0  0  0  0  0  0  0  0
    8.6563    0.2849    0.8672 C   0  0  0  0  0  0  0  0  0  0  0  0
    9.3918   -0.8581    0.8137 C   0  0  0  0  0  0  0  0  0  0  0  0
   10.7192   -0.7965    0.5674 N   0  0  0  0  0  0  0  0  0  0  0  0
   11.0681    2.4767    0.2829 H   0  0  0  0  0  0  0  0  0  0  0  0
    8.9173   -1.8393    0.9990 H   0  0  0  0  0  0  0  0  0  0  0  0
    7.2453    0.3396    1.1816 C   0  0  0  0  0  0  0  0  0  0  0  0
    6.8280    1.2503    2.1727 C   0  0  0  0  0  0  0  0  0  0  0  0
    5.5008    1.4008    2.4709 C   0  0  0  0  0  0  0  0  0  0  0  0
    4.5593    0.6581    1.7975 C   0  0  0  0  0  0  0  0  0  0  0  0
    3.2151    0.8604    2.1167 C   0  0  0  0  0  0  0  0  0  0  0  0
    2.2289    0.1638    1.4572 C   0  0  0  0  0  0  0  0  0  0  0  0
    2.5922   -0.7345    0.4786 C   0  0  0  0  0  0  0  0  0  0  0  0
    1.6251   -1.4194   -0.2126 C   0  0  0  0  0  0  0  0  0  0  0  0
    2.0267   -2.3067   -1.2220 C   0  0  0  0  0  0  0  0  0  0  0  0
    3.3487   -2.4957   -1.5233 C   0  0  0  0  0  0  0  0  0  0  0  0
    4.3231   -1.8031   -0.8256 C   0  0  0  0  0  0  0  0  0  0  0  0
    5.6637   -1.9734   -1.1490 C   0  0  0  0  0  0  0  0  0  0  0  0
    6.6423   -1.2847   -0.4959 C   0  0  0  0  0  0  0  0  0  0  0  0
    6.3096   -0.4065    0.5024 C   0  0  0  0  0  0  0  0  0  0  0  0
    4.9491   -0.2289    0.8313 C   0  0  0  0  0  0  0  0  0  0  0  0
    3.9560   -0.9294    0.1675 C   0  0  0  0  0  0  0  0  0  0  0  0
    7.6013    1.8118    2.6730 H   0  0  0  0  0  0  0  0  0  0  0  0
    5.1615    2.0950    3.2328 H   0  0  0  0  0  0  0  0  0  0  0  0
    2.9426    1.5684    2.8878 H   0  0  0  0  0  0  0  0  0  0  0  0
    1.1865    0.3344    1.7080 H   0  0  0  0  0  0  0  0  0  0  0  0
    1.2686   -2.8380   -1.7551 H   0  0  0  0  0  0  0  0  0  0  0  0
    3.6950   -3.1730   -2.2928 H   0  0  0  0  0  0  0  0  0  0  0  0
    5.9497   -2.6670   -1.9348 H   0  0  0  0  0  0  0  0  0  0  0  0
    7.6476   -1.4174   -0.8036 H   0  0  0  0  0  0  0  0  0  0  0  0
   -2.9398   -2.1758    3.5213 N   0  0  0  0  0  0  0  0  0  0  0  0
   -2.4681   -1.8007    2.5444 C   0  0  0  0  0  0  0  0  0  0  0  0
   -1.8370   -1.3648    1.2929 C   0  0  0  0  0  0  0  0  0  0  0  0
   -0.4684   -1.5618    1.1818 C   0  0  0  0  0  0  0  0  0  0  0  0
    0.1913   -1.2749    0.0348 C   0  0  0  0  0  0  0  0  0  0  0  0
   -0.5854   -0.7744   -1.0171 C   0  0  0  0  0  0  0  0  0  0  0  0
   -1.9074   -0.5813   -0.9119 C   0  0  0  0  0  0  0  0  0  0  0  0
   -2.5918   -0.8754    0.2748 C   0  0  0  0  0  0  0  0  0  0  0  0
    0.0909   -1.9602    2.0478 H   0  0  0  0  0  0  0  0  0  0  0  0
   -0.0577   -0.5367   -1.9594 H   0  0  0  0  0  0  0  0  0  0  0  0
   -2.4583   -0.1919   -1.7509 H   0  0  0  0  0  0  0  0  0  0  0  0
   -4.0314   -0.6600    0.2571 C   0  0  0  0  0  0  0  0  0  0  0  0
   -4.8628   -0.3515    1.2772 C   0  0  0  0  0  0  0  0  0  0  0  0
   -6.2048   -0.1157    1.0855 N   0  0  0  0  0  0  0  0  0  0  0  0
   -6.7736   -0.1754   -0.1323 C   0  0  0  0  0  0  0  0  0  0  0  0
   -5.9408   -0.4854   -1.1745 C   0  0  0  0  0  0  0  0  0  0  0  0
   -4.6382   -0.7150   -0.9818 N   0  0  0  0  0  0  0  0  0  0  0  0
   -4.4883   -0.2360    2.2811 H   0  0  0  0  0  0  0  0  0  0  0  0
   -6.3754   -0.5420   -2.1805 H   0  0  0  0  0  0  0  0  0  0  0  0
   -8.1960    0.0630   -0.2685 C   0  0  0  0  0  0  0  0  0  0  0  0
   -8.8425    0.0433   -1.4753 C   0  0  0  0  0  0  0  0  0  0  0  0
  -10.1527    0.2761   -1.5980 N   0  0  0  0  0  0  0  0  0  0  0  0
  -10.9267    0.5527   -0.4943 C   0  0  0  0  0  0  0  0  0  0  0  0
  -10.2913    0.5755    0.7034 C   0  0  0  0  0  0  0  0  0  0  0  0
   -8.9826    0.3391    0.8081 N   0  0  0  0  0  0  0  0  0  0  0  0
   -8.2685   -0.1702   -2.3747 H   0  0  0  0  0  0  0  0  0  0  0  0
  -10.8170    0.8158    1.6147 H   0  0  0  0  0  0  0  0  0  0  0  0
  -12.3043    0.8722   -0.7846 C   0  0  0  0  0  0  0  0  0  0  0  0
  -12.5932    1.7438   -1.8626 C   0  0  0  0  0  0  0  0  0  0  0  0
  -13.8826    2.0468   -2.2098 C   0  0  0  0  0  0  0  0  0  0  0  0
  -14.9495    1.4982   -1.5044 C   0  0  0  0  0  0  0  0  0  0  0  0
  -16.2517    1.7986   -1.8638 C   0  0  0  0  0  0  0  0  0  0  0  0
  -17.3007    1.2402   -1.1678 C   0  0  0  0  0  0  0  0  0  0  0  0
  -17.0860    0.3770   -0.1079 C   0  0  0  0  0  0  0  0  0  0  0  0
  -18.1406   -0.1936    0.5713 C   0  0  0  0  0  0  0  0  0  0  0  0
  -17.9418   -1.0779    1.6235 C   0  0  0  0  0  0  0  0  0  0  0  0
  -16.6490   -1.3769    1.9795 C   0  0  0  0  0  0  0  0  0  0  0  0
  -15.6026   -0.7910    1.2831 C   0  0  0  0  0  0  0  0  0  0  0  0
  -14.3050   -1.0927    1.6181 C   0  0  0  0  0  0  0  0  0  0  0  0
  -13.2230   -0.5310    0.9297 C   0  0  0  0  0  0  0  0  0  0  0  0
  -13.3759    0.3532   -0.1189 C   0  0  0  0  0  0  0  0  0  0  0  0
  -14.7005    0.6543   -0.4640 C   0  0  0  0  0  0  0  0  0  0  0  0
  -15.7769    0.0864    0.2405 C   0  0  0  0  0  0  0  0  0  0  0  0
  -11.7740    2.1716   -2.4145 H   0  0  0  0  0  0  0  0  0  0  0  0
  -14.1168    2.7160   -3.0322 H   0  0  0  0  0  0  0  0  0  0  0  0
  -16.3901    2.4835   -2.7055 H   0  0  0  0  0  0  0  0  0  0  0  0
  -18.3177    1.4622   -1.4336 H   0  0  0  0  0  0  0  0  0  0  0  0
  -18.8177   -1.4792    2.0988 H   0  0  0  0  0  0  0  0  0  0  0  0
  -16.4633   -2.0670    2.8010 H   0  0  0  0  0  0  0  0  0  0  0  0
  -14.1216   -1.7767    2.4251 H   0  0  0  0  0  0  0  0  0  0  0  0
  -12.2385   -0.8456    1.2184 H   0  0  0  0  0  0  0  0  0  0  0  0
   20.5595   -0.5331   -2.0611 H   0  0  0  0  0  0  0  0  0  0  0  0
  -19.1508    0.0657    0.2622 H   0  0  0  0  0  0  0  0  0  0  0  0
  1  2  3  0
  2  3  1  0
  3  4  2  0
  4  5  1  0
  5  6  2  0
  6  7  1  0
  7  8  2  0
  8  3  1  0
  4  9  1  0
  6 10  1  0
  7 11  1  0
 12 13  2  0
 13 14  1  0
 14 15  2  0
 15 16  1  0
 16 17  2  0
 17 12  1  0
 13 18  1  0
 16 19  1  0
 20 21  2  0
 21 22  1  0
 22 23  2  0
 23 24  1  0
 24 25  2  0
 25 20  1  0
 21 26  1  0
 24 27  1  0
 28 29  2  0
 29 30  1  0
 30 31  2  0
 31 32  1  0
 32 33  2  0
 33 34  1  0
 34 35  2  0
 35 36  1  0
 36 37  2  0
 37 38  1  0
 38 39  2  0
 39 40  1  0
 40 41  2  0
 41 42  1  0
 42 43  2  0
 41 28  1  0
 42 31  1  0
 43 34  1  0
 43 38  1  0
 29 44  1  0
 30 45  1  0
 32 46  1  0
 33 47  1  0
 36 48  1  0
 37 49  1  0
 39 50  1  0
 40 51  1  0
 52 53  3  0
 53 54  1  0
 54 55  2  0
 55 56  1  0
 56 57  2  0
 57 58  1  0
 58 59  2  0
 59 54  1  0
 55 60  1  0
 57 61  1  0
 58 62  1  0
 63 64  2  0
 64 65  1  0
 65 66  2  0
 66 67  1  0
 67 68  2  0
 68 63  1  0
 64 69  1  0
 67 70  1  0
 71 72  2  0
 72 73  1  0
 73 74  2  0
 74 75  1  0
 75 76  2  0
 76 71  1  0
 72 77  1  0
 75 78  1  0
 79 80  2  0
 80 81  1  0
 81 82  2  0
 82 83  1  0
 83 84  2  0
 84 85  1  0
 85 86  2  0
 86 87  1  0
 87 88  2  0
 88 89  1  0
 89 90  2  0
 90 91  1  0
 91 92  2  0
 92 93  1  0
 93 94  2  0
 92 79  1  0
 93 82  1  0
 94 85  1  0
 94 89  1  0
 80 95  1  0
 81 96  1  0
 83 97  1  0
 84 98  1  0
 87 99  1  0
 88100  1  0
 90101  1  0
 91102  1  0
  8 12  1  0
 15 20  1  0
 23 28  1  0
 35 56  1  0
 59 63  1  0
 66 71  1  0
 74 79  1  0
  5103  1  0
 86104  1  0
M  END
