90

N        -13.37850       -0.29050        3.30370
C        -13.85460        0.02250        2.27500
C        -14.45690        0.42280        1.03420
C        -15.85120        0.55660        0.98570
C        -16.45690        0.95020       -0.17950
C        -15.69270        1.20960       -1.28770
C        -14.32210        1.07610       -1.23600
C        -13.67490        0.67580       -0.06160
H        -16.46970        0.35220        1.86470
H        -16.18900        1.51610       -2.18840
H        -13.68980        1.26980       -2.08290
N         -9.03250       -2.79950        1.43690
C         -9.52790       -1.85380        0.99060
C        -10.16040       -0.65820        0.45670
C        -11.54610       -0.55420        0.43560
C        -12.23310        0.52940       -0.03180
C        -11.46900        1.59790       -0.51920
C        -10.08330        1.53360       -0.51640
C         -9.43570        0.40340       -0.02760
H        -12.10710       -1.39190        0.80770
H        -11.97470        2.47360       -0.89650
H         -9.52000        2.38770       -0.90680
N         -4.78400       -2.92160       -1.64100
C         -5.27950       -1.97130       -1.19960
C         -5.90820       -0.79450       -0.62320
C         -7.30080       -0.71750       -0.59300
C         -7.97460        0.35640       -0.05200
C         -7.20860        1.38220        0.47330
C         -5.82620        1.31480        0.44710
C         -5.16100        0.23610       -0.09630
H         -7.83390       -1.56610       -1.03840
H         -7.73400        2.23230        0.90350
H         -5.22840        2.12700        0.86300
N         -0.38550       -0.64440       -3.45080
C         -0.92860       -0.37880       -2.45510
C         -1.62410       -0.07080       -1.21150
C         -3.01040       -0.05690       -1.26810
C         -3.71330        0.21380       -0.11800
C         -2.99310        0.46270        1.05350
C         -1.61660        0.44930        1.10930
C         -0.92940        0.17590       -0.05390
H         -3.52030       -0.25220       -2.22620
H         -3.54340        0.68020        1.97170
H         -1.09510        0.65050        2.05620
N          3.97160        2.18530       -2.69530
C          3.39720        1.59330       -1.88170
C          2.66250        0.84380       -0.89060
C          1.26510        0.87940       -0.93040
C          0.52900        0.17050       -0.02180
C          1.19390       -0.58870        0.94740
C          2.57140       -0.61240        0.97280
C          3.33690        0.10790        0.04840
H          0.81090        1.50020       -1.70760
H          0.63060       -1.15580        1.67640
H          3.14740       -1.18250        1.70030
N          8.35730        3.30010        0.16430
C          7.73240        2.30380        0.13320
C          6.96230        1.09180        0.12190
C          5.56730        1.20610        0.09500
C          4.78760        0.07540        0.09600
C          5.42940       -1.16480        0.12540
C          6.80030       -1.27380        0.15180
C          7.60170       -0.12560        0.14970
H          5.10900        2.19420        0.08270
H          4.80940       -2.04270        0.12700
H          7.32150       -2.22210        0.17530
N         12.25260       -2.79150        2.79720
C         11.74540       -2.07920        2.01670
C         11.09340       -1.21800        1.05020
C          9.70180       -1.07670        1.07560
C          9.06320       -0.27320        0.15500
C          9.85140        0.37050       -0.77340
C         11.22130        0.23810       -0.80620
C         11.88280       -0.57630        0.12560
H          9.13850       -1.60730        1.82830
H          9.37470        1.01400       -1.52630
H         11.85570        0.73900       -1.53210
N         16.36370       -1.74320       -3.54260
C         15.88820       -1.46290       -2.51070
C         15.29610       -1.14100       -1.24300
C         13.93750       -1.00960       -1.10130
C         13.33010       -0.70230        0.09420
C         14.16500       -0.52650        1.17320
C         15.53580       -0.65250        1.05990
C         16.11550       -0.96160       -0.15220
H         13.31590       -1.15500       -1.97520
H         13.76420       -0.27640        2.14040
H         16.17110       -0.50840        1.92180
H        -17.54570        1.04150       -0.17330
H         17.21250       -1.06160       -0.24090
