
     RDKit          3D

 90 97  0  0  0  0  0  0  0  0999 V2000
  -13.3785   -0.2905    3.3037 N   0  0  0  0  0  0  0  0  0  0  0  0
  -13.8546    0.0225    2.2750 C   0  0  0  0  0  0  0  0  0  0  0  0
  -14.4569    0.4228    1.0342 C   0  0  0  0  0  0  0  0  0  0  0  0
  -15.8512    0.5566    0.9857 C   0  0  0  0  0  0  0  0  0  0  0  0
  -16.4569    0.9502   -0.1795 C   0  0  0  0  0  0  0  0  0  0  0  0
  -15.6927    1.2096   -1.2877 C   0  0  0  0  0  0  0  0  0  0  0  0
  -14.3221    1.0761   -1.2360 C   0  0  0  0  0  0  0  0  0  0  0  0
  -13.6749    0.6758   -0.0616 C   0  0  0  0  0  0  0  0  0  0  0  0
  -16.4697    0.3522    1.8647 H   0  0  0  0  0  0  0  0  0  0  0  0
  -16.1890    1.5161   -2.1884 H   0  0  0  0  0  0  0  0  0  0  0  0
  -13.6898    1.2698   -2.0829 H   0  0  0  0  0  0  0  0  0  0  0  0
   -9.0325   -2.7995    1.4369 N   0  0  0  0  0  0  0  0  0  0  0  0
   -9.5279   -1.8538    0.9906 C   0  0  0  0  0  0  0  0  0  0  0  0
  -10.1604   -0.6582    0.4567 C   0  0  0  0  0  0  0  0  0  0  0  0
  -11.5461   -0.5542    0.4356 C   0  0  0  0  0  0  0  0  0  0  0  0
  -12.2331    0.5294   -0.0318 C   0  0  0  0  0  0  0  0  0  0  0  0
  -11.4690    1.5979   -0.5192 C   0  0  0  0  0  0  0  0  0  0  0  0
  -10.0833    1.5336   -0.5164 C   0  0  0  0  0  0  0  0  0  0  0  0
   -9.4357    0.4034   -0.0276 C   0  0  0  0  0  0  0  0  0  0  0  0
  -12.1071   -1.3919    0.8077 H   0  0  0  0  0  0  0  0  0  0  0  0
  -11.9747    2.4736   -0.8965 H   0  0  0  0  0  0  0  0  0  0  0  0
   -9.5200    2.3877   -0.9068 H   0  0  0  0  0  0  0  0  0  0  0  0
   -4.7840   -2.9216   -1.6410 N   0  0  0  0  0  0  0  0  0  0  0  0
   -5.2795   -1.9713   -1.1996 C   0  0  0  0  0  0  0  0  0  0  0  0
   -5.9082   -0.7945   -0.6232 C   0  0  0  0  0  0  0  0  0  0  0  0
   -7.3008   -0.7175   -0.5930 C   0  0  0  0  0  0  0  0  0  0  0  0
   -7.9746    0.3564   -0.0520 C   0  0  0  0  0  0  0  0  0  0  0  0
   -7.2086    1.3822    0.4733 C   0  0  0  0  0  0  0  0  0  0  0  0
   -5.8262    1.3148    0.4471 C   0  0  0  0  0  0  0  0  0  0  0  0
   -5.1610    0.2361   -0.0963 C   0  0  0  0  0  0  0  0  0  0  0  0
   -7.8339   -1.5661   -1.0384 H   0  0  0  0  0  0  0  0  0  0  0  0
   -7.7340    2.2323    0.9035 H   0  0  0  0  0  0  0  0  0  0  0  0
   -5.2284    2.1270    0.8630 H   0  0  0  0  0  0  0  0  0  0  0  0
   -0.3855   -0.6444   -3.4508 N   0  0  0  0  0  0  0  0  0  0  0  0
   -0.9286   -0.3788   -2.4551 C   0  0  0  0  0  0  0  0  0  0  0  0
   -1.6241   -0.0708   -1.2115 C   0  0  0  0  0  0  0  0  0  0  0  0
   -3.0104   -0.0569   -1.2681 C   0  0  0  0  0  0  0  0  0  0  0  0
   -3.7133    0.2138   -0.1180 C   0  0  0  0  0  0  0  0  0  0  0  0
   -2.9931    0.4627    1.0535 C   0  0  0  0  0  0  0  0  0  0  0  0
   -1.6166    0.4493    1.1093 C   0  0  0  0  0  0  0  0  0  0  0  0
   -0.9294    0.1759   -0.0539 C   0  0  0  0  0  0  0  0  0  0  0  0
   -3.5203   -0.2522   -2.2262 H   0  0  0  0  0  0  0  0  0  0  0  0
   -3.5434    0.6802    1.9717 H   0  0  0  0  0  0  0  0  0  0  0  0
   -1.0951    0.6505    2.0562 H   0  0  0  0  0  0  0  0  0  0  0  0
    3.9716    2.1853   -2.6953 N   0  0  0  0  0  0  0  0  0  0  0  0
    3.3972    1.5933   -1.8817 C   0  0  0  0  0  0  0  0  0  0  0  0
    2.6625    0.8438   -0.8906 C   0  0  0  0  0  0  0  0  0  0  0  0
    1.2651    0.8794   -0.9304 C   0  0  0  0  0  0  0  0  0  0  0  0
    0.5290    0.1705   -0.0218 C   0  0  0  0  0  0  0  0  0  0  0  0
    1.1939   -0.5887    0.9474 C   0  0  0  0  0  0  0  0  0  0  0  0
    2.5714   -0.6124    0.9728 C   0  0  0  0  0  0  0  0  0  0  0  0
    3.3369    0.1079    0.0484 C   0  0  0  0  0  0  0  0  0  0  0  0
    0.8109    1.5002   -1.7076 H   0  0  0  0  0  0  0  0  0  0  0  0
    0.6306   -1.1558    1.6764 H   0  0  0  0  0  0  0  0  0  0  0  0
    3.1474   -1.1825    1.7003 H   0  0  0  0  0  0  0  0  0  0  0  0
    8.3573    3.3001    0.1643 N   0  0  0  0  0  0  0  0  0  0  0  0
    7.7324    2.3038    0.1332 C   0  0  0  0  0  0  0  0  0  0  0  0
    6.9623    1.0918    0.1219 C   0  0  0  0  0  0  0  0  0  0  0  0
    5.5673    1.2061    0.0950 C   0  0  0  0  0  0  0  0  0  0  0  0
    4.7876    0.0754    0.0960 C   0  0  0  0  0  0  0  0  0  0  0  0
    5.4294   -1.1648    0.1254 C   0  0  0  0  0  0  0  0  0  0  0  0
    6.8003   -1.2738    0.1518 C   0  0  0  0  0  0  0  0  0  0  0  0
    7.6017   -0.1256    0.1497 C   0  0  0  0  0  0  0  0  0  0  0  0
    5.1090    2.1942    0.0827 H   0  0  0  0  0  0  0  0  0  0  0  0
    4.8094   -2.0427    0.1270 H   0  0  0  0  0  0  0  0  0  0  0  0
    7.3215   -2.2221    0.1753 H   0  0  0  0  0  0  0  0  0  0  0  0
   12.2526   -2.7915    2.7972 N   0  0  0  0  0  0  0  0  0  0  0  0
   11.7454   -2.0792    2.0167 C   0  0  0  0  0  0  0  0  0  0  0  0
   11.0934   -1.2180    1.0502 C   0  0  0  0  0  0  0  0  0  0  0  0
    9.7018   -1.0767    1.0756 C   0  0  0  0  0  0  0  0  0  0  0  0
    9.0632   -0.2732    0.1550 C   0  0  0  0  0  0  0  0  0  0  0  0
    9.8514    0.3705   -0.7734 C   0  0  0  0  0  0  0  0  0  0  0  0
   11.2213    0.2381   -0.8062 C   0  0  0  0  0  0  0  0  0  0  0  0
   11.8828   -0.5763    0.1256 C   0  0  0  0  0  0  0  0  0  0  0  0
    9.1385   -1.6073    1.8283 H   0  0  0  0  0  0  0  0  0  0  0  0
    9.3747    1.0140   -1.5263 H   0  0  0  0  0  0  0  0  0  0  0  0
   11.8557    0.7390   -1.5321 H   0  0  0  0  0  0  0  0  0  0  0  0
   16.3637   -1.7432   -3.5426 N   0  0  0  0  0  0  0  0  0  0  0  0
   15.8882   -1.4629   -2.5107 C   0  0  0  0  0  0  0  0  0  0  0  0
   15.2961   -1.1410   -1.2430 C   0  0  0  0  0  0  0  0  0  0  0  0
   13.9375   -1.0096   -1.1013 C   0  0  0  0  0  0  0  0  0  0  0  0
   13.3301   -0.7023    0.0942 C   0  0  0  0  0  0  0  0  0  0  0  0
   14.1650   -0.5265    1.1732 C   0  0  0  0  0  0  0  0  0  0  0  0
   15.5358   -0.6525    1.0599 C   0  0  0  0  0  0  0  0  0  0  0  0
   16.1155   -0.9616   -0.1522 C   0  0  0  0  0  0  0  0  0  0  0  0
   13.3159   -1.1550   -1.9752 H   0  0  0  0  0  0  0  0  0  0  0  0
   13.7642   -0.2764    2.1404 H   0  0  0  0  0  0  0  0  0  0  0  0
   16.1711   -0.5084    1.9218 H   0  0  0  0  0  0  0  0  0  0  0  0
  -17.5457    1.0415   -0.1733 H   0  0  0  0  0  0  0  0  0  0  0  0
   17.2125   -1.0616   -0.2409 H   0  0  0  0  0  0  0  0  0  0  0  0
  1  2  3  0
  2  3  1  0
  3  4  2  0
  4  5  1  0
  5  6  2  0
  6  7  1  0
  7  8  2  0
  8  3  1  0
  4  9  1  0
  6 10  1  0
  7 11  1  0
 12 13  3  0
 13 14  1  0
 14 15  2  0
 15 16  1  0
 16 17  2  0
 17 18  1  0
 18 19  2  0
 19 14  1  0
 15 20  1  0
 17 21  1  0
 18 22  1  0
 23 24  3  0
 24 25  1  0
 25 26  2  0
 26 27  1  0
 27 28  2  0
 28 29  1  0
 29 30  2  0
 30 25  1  0
 26 31  1  0
 28 32  1  0
 29 33  1  0
 34 35  3  0
 35 36  1  0
 36 37  2  0
 37 38  1  0
 38 39  2  0
 39 40  1  0
 40 41  2  0
 41 36  1  0
 37 42  1  0
 39 43  1  0
 40 44  1  0
 45 46  3  0
 46 47  1  0
 47 48  2  0
 48 49  1  0
 49 50  2  0
 50 51  1  0
 51 52  2  0
 52 47  1  0
 48 53  1  0
 50 54  1  0
 51 55  1  0
 56 57  3  0
 57 58  1  0
 58 59  2  0
 59 60  1  0
 60 61  2  0
 61 62  1  0
 62 63  2  0
 63 58  1  0
 59 64  1  0
 61 65  1  0
 62 66  1  0
 67 68  3  0
 68 69  1  0
 69 70  2  0
 70 71  1  0
 71 72  2  0
 72 73  1  0
 73 74  2  0
 74 69  1  0
 70 75  1  0
 72 76  1  0
 73 77  1  0
 78 79  3  0
 79 80  1  0
 80 81  2  0
 81 82  1  0
 82 83  2  0
 83 84  1  0
 84 85  2  0
 85 80  1  0
 81 86  1  0
 83 87  1  0
 84 88  1  0
  8 16  1  0
 19 27  1  0
 30 38  1  0
 41 49  1  0
 52 60  1  0
 63 71  1  0
 74 82  1  0
  5 89  1  0
 85 90  1  0
M  END
