136

C        -19.80590       -1.02950       -2.59880
C        -19.19670       -1.77080       -3.57410
C        -17.83110       -1.76420       -3.67890
C        -17.08910       -0.98930       -2.77160
C        -15.73260       -0.97830       -2.86030
C        -14.96780       -0.22060       -1.96790
C        -15.55580        0.53320       -0.98200
C        -14.80570        1.28410       -0.07730
C        -15.46580        1.99450        0.88730
C        -16.83250        1.98610        0.98180
C        -17.57840        1.24450        0.08680
C        -18.94010        1.19920        0.14460
C        -19.70950        0.46910       -0.71930
C        -19.07130       -0.26170       -1.70030
C        -17.70040       -0.23780       -1.78340
C        -16.92770        0.51350       -0.90170
H        -19.79000       -2.37860       -4.28000
H        -17.35020       -2.34230       -4.44100
H        -15.21930       -1.54540       -3.60900
H        -13.90020       -0.24960       -2.04980
H        -14.90100        2.57850        1.59360
H        -17.37390        2.54480        1.74060
H        -19.40790        1.79280        0.93600
H        -20.77630        0.43630       -0.67140
C        -13.35270        1.36130       -0.22810
C        -12.86120        1.91710       -1.41070
C        -11.49800        2.04780       -1.56980
C        -10.61950        1.63870       -0.58080
C         -9.26660        1.76330       -0.77640
C         -8.36520        1.34040        0.19170
C         -8.81330        0.78530        1.37060
C         -7.95790        0.34920        2.34570
C         -8.44480       -0.20350        3.52330
C         -9.81040       -0.32320        3.72160
C        -10.66930        0.11290        2.73570
C        -12.01370       -0.01250        2.89970
C        -12.92640        0.39760        1.92960
C        -12.47540        0.95990        0.74700
C        -11.08610        1.08660        0.59780
C        -10.19840        0.66510        1.56250
H        -13.55470        2.23890       -2.19190
H        -11.10930        2.48140       -2.48750
H         -8.92640        2.20730       -1.71990
H         -7.30590        1.47740       -0.00440
H         -7.79440       -0.55020        4.30360
H        -10.15450       -0.75830        4.65120
H        -12.41080       -0.43800        3.80540
H        -13.98590        0.27640        2.07580
N         -2.98260        2.21930        4.86040
C         -3.56780        1.62130        4.05600
C         -4.32160        0.90570        3.03100
C         -5.72020        0.93740        3.12670
C         -6.52900        0.35270        2.17140
C         -5.88340       -0.25540        1.12590
C         -4.53330       -0.30740        0.99830
C         -3.73130        0.28410        1.97340
H         -6.15070        1.43050        3.96370
H         -6.49920       -0.72720        0.36070
H         -4.01210       -0.78530        0.17510
C         -2.28150        0.23970        1.82390
C         -1.48050       -0.10480        2.88550
N         -0.17230       -0.23630        2.65870
C          0.43700       -0.05030        1.43040
C         -0.38290        0.28800        0.42250
N         -1.70650        0.43050        0.60130
H         -1.88250       -0.30690        3.89830
H         -0.01780        0.50780       -0.56100
C          1.88600       -0.17110        1.45810
C          2.54550        0.27010        2.63060
C          3.89390        0.19490        2.80640
C          4.71830       -0.33580        1.81290
C          6.07640       -0.41060        2.00380
C          6.92530       -0.92990        1.06070
C          6.30570       -1.37720       -0.10860
C          7.08650       -1.92970       -1.11880
C          6.53480       -2.39750       -2.28890
C          5.16980       -2.31720       -2.46400
C          4.35980       -1.76790       -1.46810
C          2.99840       -1.70110       -1.64270
C          2.15400       -1.17130       -0.67970
C          2.69770       -0.69260        0.49130
C          4.09370       -0.77270        0.66600
C          4.94560       -1.30630       -0.30770
H          1.90400        0.68300        3.40360
H          4.39970        0.53230        3.70360
H          6.48930       -0.04160        2.94380
H          7.97800       -1.01150        1.17750
H          7.14750       -2.83410       -3.08930
H          4.67530       -2.66930       -3.36110
H          2.58520       -2.08690       -2.58470
H          1.09950       -1.20220       -0.86040
C          8.52250       -2.02910       -0.87760
C          9.04180       -3.25390       -0.43200
C         10.37710       -3.40570       -0.18330
C         11.22000       -2.33050       -0.37620
C         12.57310       -2.47150       -0.11900
C         13.47500       -1.44170       -0.28160
C         12.99310       -0.22420       -0.72110
C         13.87240        0.82790       -0.88340
C         13.31880        2.02950       -1.31290
C         11.97550        2.18590       -1.57080
C         11.09800        1.13520       -1.41170
C          9.75240        1.30030       -1.66590
C          8.85710        0.27020       -1.50490
C          9.36660       -0.96540       -1.06790
C         10.72880       -1.11230       -0.81590
C         11.62690       -0.06890       -0.98370
H          8.35250       -4.08710       -0.28810
H         10.79050       -4.35470        0.16240
H         12.91350       -3.43650        0.22030
H         14.51720       -1.58410       -0.05700
H         13.97850        2.88140       -1.45010
H         11.55360        3.13520       -1.90830
H          9.37890        2.27840       -2.00460
H          7.80610        0.33450       -1.68530
N         18.46100        2.93030        2.22110
C         17.99250        2.21990        1.40370
C         17.38320        1.36960        0.41580
C         15.99400        1.47000        0.23480
C         15.31780        0.70270       -0.67970
C         16.08200       -0.17270       -1.41240
C         17.45540       -0.28740       -1.24890
C         18.13890        0.48610       -0.32500
H         15.42450        2.17750        0.83370
H         15.60200       -0.80550       -2.15220
H         18.02560       -0.98790       -1.84600
C         19.57660        0.34950       -0.15040
C         20.33060       -0.55880       -0.86550
N         21.68870       -0.68670       -0.68380
C         22.32780        0.07560        0.20360
C         21.59590        0.99120        0.93010
N         20.27190        1.09080        0.72830
H         19.88260       -1.20180       -1.58890
H         22.11870        1.62120        1.65920
H        -20.87780       -1.03880       -2.52480
H         23.39690        0.01610        0.38710
