
     RDKit          3D

162185  0  0  0  0  0  0  0  0999 V2000
   21.7251    1.8406    1.7775 O   0  0  0  0  0  0  0  0  0  0  0  0
   21.7270    0.3569    1.7813 S   0  0  0  0  0  0  0  0  0  0  0  0
   21.1093   -0.2311    3.0257 O   0  0  0  0  0  0  0  0  0  0  0  0
   23.3082   -0.3083    1.4542 C   0  0  0  0  0  0  0  0  0  0  0  0
   24.5072   -0.2094    2.1651 C   0  0  0  0  0  0  0  0  0  0  0  0
   25.6412   -0.8332    1.6915 C   0  0  0  0  0  0  0  0  0  0  0  0
   25.5703   -1.5481    0.5164 C   0  0  0  0  0  0  0  0  0  0  0  0
   24.3842   -1.6240   -0.1505 C   0  0  0  0  0  0  0  0  0  0  0  0
   23.1956   -1.0068    0.2887 C   0  0  0  0  0  0  0  0  0  0  0  0
   21.8844   -1.0129   -0.3145 C   0  0  0  0  0  0  0  0  0  0  0  0
   21.4589   -1.6482   -1.5000 C   0  0  0  0  0  0  0  0  0  0  0  0
   20.1510   -1.5457   -1.9106 C   0  0  0  0  0  0  0  0  0  0  0  0
   19.1901   -0.8471   -1.2316 C   0  0  0  0  0  0  0  0  0  0  0  0
   19.6145   -0.2173   -0.0584 C   0  0  0  0  0  0  0  0  0  0  0  0
   20.9258   -0.3178    0.3581 C   0  0  0  0  0  0  0  0  0  0  0  0
   24.4839    0.3676    3.0767 H   0  0  0  0  0  0  0  0  0  0  0  0
   26.4708   -2.0521    0.1223 H   0  0  0  0  0  0  0  0  0  0  0  0
   24.3595   -2.1992   -1.0815 H   0  0  0  0  0  0  0  0  0  0  0  0
   22.1723   -2.2282   -2.0963 H   0  0  0  0  0  0  0  0  0  0  0  0
   19.8476   -2.0503   -2.8398 H   0  0  0  0  0  0  0  0  0  0  0  0
   18.9301    0.3455    0.5295 H   0  0  0  0  0  0  0  0  0  0  0  0
   14.2258    2.4880   -1.2110 N   0  0  0  0  0  0  0  0  0  0  0  0
   14.8793    1.5321   -1.4072 C   0  0  0  0  0  0  0  0  0  0  0  0
   15.6791    0.3681   -1.6521 C   0  0  0  0  0  0  0  0  0  0  0  0
   17.0254    0.3611   -1.3621 C   0  0  0  0  0  0  0  0  0  0  0  0
   17.7812   -0.7590   -1.6082 C   0  0  0  0  0  0  0  0  0  0  0  0
   17.1673   -1.8571   -2.1491 C   0  0  0  0  0  0  0  0  0  0  0  0
   15.8139   -1.8577   -2.4438 C   0  0  0  0  0  0  0  0  0  0  0  0
   15.0339   -0.7503   -2.2025 C   0  0  0  0  0  0  0  0  0  0  0  0
   17.5262    1.2304   -0.9341 H   0  0  0  0  0  0  0  0  0  0  0  0
   17.7656   -2.7330   -2.3438 H   0  0  0  0  0  0  0  0  0  0  0  0
   15.3475   -2.7290   -2.8679 H   0  0  0  0  0  0  0  0  0  0  0  0
   13.5988   -0.7148   -2.4257 C   0  0  0  0  0  0  0  0  0  0  0  0
   12.9399   -0.4530   -3.5806 C   0  0  0  0  0  0  0  0  0  0  0  0
   11.5553   -0.4266   -3.6715 C   0  0  0  0  0  0  0  0  0  0  0  0
   10.7876   -0.6744   -2.5428 C   0  0  0  0  0  0  0  0  0  0  0  0
    9.3997   -0.6453   -2.6076 C   0  0  0  0  0  0  0  0  0  0  0  0
    8.6204   -0.8797   -1.4987 C   0  0  0  0  0  0  0  0  0  0  0  0
    9.2553   -1.1539   -0.2836 C   0  0  0  0  0  0  0  0  0  0  0  0
    8.4600   -1.3744    0.8283 C   0  0  0  0  0  0  0  0  0  0  0  0
    9.1157   -1.6269    2.0208 C   0  0  0  0  0  0  0  0  0  0  0  0
   10.4906   -1.6541    2.0719 C   0  0  0  0  0  0  0  0  0  0  0  0
   11.2835   -1.4331    0.9513 C   0  0  0  0  0  0  0  0  0  0  0  0
   12.6601   -1.4673    1.0688 C   0  0  0  0  0  0  0  0  0  0  0  0
   13.4225   -1.2279   -0.0835 C   0  0  0  0  0  0  0  0  0  0  0  0
   12.8106   -0.9659   -1.2861 C   0  0  0  0  0  0  0  0  0  0  0  0
   11.4298   -0.9423   -1.3598 C   0  0  0  0  0  0  0  0  0  0  0  0
   10.6326   -1.1790   -0.2426 C   0  0  0  0  0  0  0  0  0  0  0  0
   13.5352   -0.2535   -4.4695 H   0  0  0  0  0  0  0  0  0  0  0  0
   11.0493   -0.2127   -4.6056 H   0  0  0  0  0  0  0  0  0  0  0  0
    8.9673   -0.4287   -3.5712 H   0  0  0  0  0  0  0  0  0  0  0  0
    7.5437   -0.8517   -1.5607 H   0  0  0  0  0  0  0  0  0  0  0  0
    8.4789   -1.7985    2.8984 H   0  0  0  0  0  0  0  0  0  0  0  0
   11.0108   -1.8518    2.9954 H   0  0  0  0  0  0  0  0  0  0  0  0
   13.1796   -1.6680    1.9945 H   0  0  0  0  0  0  0  0  0  0  0  0
   14.4958   -1.2610   -0.0010 H   0  0  0  0  0  0  0  0  0  0  0  0
    6.9991   -1.4024    0.7427 C   0  0  0  0  0  0  0  0  0  0  0  0
    6.3770   -2.6363    0.5243 C   0  0  0  0  0  0  0  0  0  0  0  0
    5.0082   -2.6566    0.4816 C   0  0  0  0  0  0  0  0  0  0  0  0
    4.2904   -1.4808    0.6495 C   0  0  0  0  0  0  0  0  0  0  0  0
    2.9214   -1.4987    0.5951 C   0  0  0  0  0  0  0  0  0  0  0  0
    2.2181   -0.3001    0.7532 C   0  0  0  0  0  0  0  0  0  0  0  0
    2.8038    0.9101    0.9608 C   0  0  0  0  0  0  0  0  0  0  0  0
    2.0544    2.0608    1.1015 C   0  0  0  0  0  0  0  0  0  0  0  0
    2.7406    3.2398    1.3104 C   0  0  0  0  0  0  0  0  0  0  0  0
    4.1299    3.2692    1.3742 C   0  0  0  0  0  0  0  0  0  0  0  0
    4.8553    2.1093    1.2278 C   0  0  0  0  0  0  0  0  0  0  0  0
    6.2296    2.1277    1.2766 C   0  0  0  0  0  0  0  0  0  0  0  0
    6.9493    0.9478    1.1158 C   0  0  0  0  0  0  0  0  0  0  0  0
    6.2838   -0.2422    0.9094 C   0  0  0  0  0  0  0  0  0  0  0  0
    4.9015   -0.2679    0.8632 C   0  0  0  0  0  0  0  0  0  0  0  0
    4.1982    0.9077    1.0166 C   0  0  0  0  0  0  0  0  0  0  0  0
    6.9647   -3.5536    0.3936 H   0  0  0  0  0  0  0  0  0  0  0  0
    4.4617   -3.5811    0.3181 H   0  0  0  0  0  0  0  0  0  0  0  0
    2.3839   -2.4374    0.4322 H   0  0  0  0  0  0  0  0  0  0  0  0
    1.1565   -0.3961    0.7251 H   0  0  0  0  0  0  0  0  0  0  0  0
    2.1831    4.1628    1.4267 H   0  0  0  0  0  0  0  0  0  0  0  0
    4.6635    4.1995    1.5389 H   0  0  0  0  0  0  0  0  0  0  0  0
    6.7935    3.0451    1.4416 H   0  0  0  0  0  0  0  0  0  0  0  0
    8.0157    0.9587    1.1491 H   0  0  0  0  0  0  0  0  0  0  0  0
   -2.9168    4.6847    2.7794 O   0  0  0  0  0  0  0  0  0  0  0  0
   -2.9776    3.1792    2.6758 S   0  0  0  0  0  0  0  0  0  0  0  0
   -2.9944    2.5307    4.0115 O   0  0  0  0  0  0  0  0  0  0  0  0
   -1.6531    2.5872    1.6707 C   0  0  0  0  0  0  0  0  0  0  0  0
   -0.2673    2.5882    1.8983 C   0  0  0  0  0  0  0  0  0  0  0  0
    0.5981    2.0857    0.9567 C   0  0  0  0  0  0  0  0  0  0  0  0
    0.0050    1.5948   -0.2045 C   0  0  0  0  0  0  0  0  0  0  0  0
   -1.3416    1.5971   -0.4169 C   0  0  0  0  0  0  0  0  0  0  0  0
   -2.2369    2.1030    0.5353 C   0  0  0  0  0  0  0  0  0  0  0  0
   -3.6707    2.1492    0.5017 C   0  0  0  0  0  0  0  0  0  0  0  0
   -4.5471    1.6871   -0.4764 C   0  0  0  0  0  0  0  0  0  0  0  0
   -5.8866    1.7364   -0.3661 C   0  0  0  0  0  0  0  0  0  0  0  0
   -6.4815    2.2674    0.7596 C   0  0  0  0  0  0  0  0  0  0  0  0
   -5.6200    2.7285    1.7317 C   0  0  0  0  0  0  0  0  0  0  0  0
   -4.2563    2.6738    1.6130 C   0  0  0  0  0  0  0  0  0  0  0  0
    0.1153    2.9830    2.8084 H   0  0  0  0  0  0  0  0  0  0  0  0
    0.6947    1.1977   -0.9640 H   0  0  0  0  0  0  0  0  0  0  0  0
   -1.7636    1.1969   -1.3565 H   0  0  0  0  0  0  0  0  0  0  0  0
   -4.1434    1.2500   -1.4111 H   0  0  0  0  0  0  0  0  0  0  0  0
   -6.5031    1.3346   -1.1857 H   0  0  0  0  0  0  0  0  0  0  0  0
   -6.1105    3.1486    2.6237 H   0  0  0  0  0  0  0  0  0  0  0  0
  -11.3975    1.8764    4.1781 N   0  0  0  0  0  0  0  0  0  0  0  0
  -10.7975    1.9985    3.1792 C   0  0  0  0  0  0  0  0  0  0  0  0
  -10.0515    2.1207    1.9437 C   0  0  0  0  0  0  0  0  0  0  0  0
   -8.6747    2.1615    1.9677 C   0  0  0  0  0  0  0  0  0  0  0  0
   -7.9259    2.2628    0.8183 C   0  0  0  0  0  0  0  0  0  0  0  0
   -8.6576    2.3240   -0.3743 C   0  0  0  0  0  0  0  0  0  0  0  0
  -10.0326    2.2812   -0.3926 C   0  0  0  0  0  0  0  0  0  0  0  0
  -10.7803    2.1769    0.7775 C   0  0  0  0  0  0  0  0  0  0  0  0
   -8.1237    2.1109    2.9111 H   0  0  0  0  0  0  0  0  0  0  0  0
   -8.0948    2.4229   -1.2976 H   0  0  0  0  0  0  0  0  0  0  0  0
  -10.5778    2.3308   -1.3213 H   0  0  0  0  0  0  0  0  0  0  0  0
  -12.2350    2.1973    0.7128 C   0  0  0  0  0  0  0  0  0  0  0  0
  -12.9107    3.2912    1.2154 C   0  0  0  0  0  0  0  0  0  0  0  0
  -14.2715    3.4145    1.1164 C   0  0  0  0  0  0  0  0  0  0  0  0
  -14.9933    2.3844    0.4793 C   0  0  0  0  0  0  0  0  0  0  0  0
  -16.3571    2.4686    0.3881 C   0  0  0  0  0  0  0  0  0  0  0  0
  -17.0479    1.4451   -0.2071 C   0  0  0  0  0  0  0  0  0  0  0  0
  -16.3759    0.3536   -0.7032 C   0  0  0  0  0  0  0  0  0  0  0  0
  -17.0909   -0.6788   -1.2567 C   0  0  0  0  0  0  0  0  0  0  0  0
  -16.4006   -1.7830   -1.7185 C   0  0  0  0  0  0  0  0  0  0  0  0
  -15.0345   -1.8914   -1.6463 C   0  0  0  0  0  0  0  0  0  0  0  0
  -14.3113   -0.8414   -1.0787 C   0  0  0  0  0  0  0  0  0  0  0  0
  -12.9411   -0.9391   -0.9653 C   0  0  0  0  0  0  0  0  0  0  0  0
  -12.2319    0.0904   -0.3723 C   0  0  0  0  0  0  0  0  0  0  0  0
  -12.9163    1.1794    0.0882 C   0  0  0  0  0  0  0  0  0  0  0  0
  -14.3147    1.3114   -0.0099 C   0  0  0  0  0  0  0  0  0  0  0  0
  -15.0043    0.2554   -0.6212 C   0  0  0  0  0  0  0  0  0  0  0  0
  -12.3483    4.0790    1.7009 H   0  0  0  0  0  0  0  0  0  0  0  0
  -14.8435    4.2542    1.4933 H   0  0  0  0  0  0  0  0  0  0  0  0
  -16.8663    3.3550    0.7944 H   0  0  0  0  0  0  0  0  0  0  0  0
  -18.1333    1.4973   -0.2891 H   0  0  0  0  0  0  0  0  0  0  0  0
  -16.9923   -2.5965   -2.1575 H   0  0  0  0  0  0  0  0  0  0  0  0
  -14.4758   -2.7339   -1.9997 H   0  0  0  0  0  0  0  0  0  0  0  0
  -12.4159   -1.8026   -1.3272 H   0  0  0  0  0  0  0  0  0  0  0  0
  -11.1687    0.0375   -0.2543 H   0  0  0  0  0  0  0  0  0  0  0  0
  -18.5572   -0.6473   -1.4208 C   0  0  0  0  0  0  0  0  0  0  0  0
  -19.1533    0.1348   -2.3917 C   0  0  0  0  0  0  0  0  0  0  0  0
  -20.5234    0.0792   -2.5882 C   0  0  0  0  0  0  0  0  0  0  0  0
  -21.3298   -0.7630   -1.8117 C   0  0  0  0  0  0  0  0  0  0  0  0
  -22.6946   -0.8058   -2.0034 C   0  0  0  0  0  0  0  0  0  0  0  0
  -23.4816   -1.6424   -1.2040 C   0  0  0  0  0  0  0  0  0  0  0  0
  -22.8753   -2.4052   -0.2419 C   0  0  0  0  0  0  0  0  0  0  0  0
  -23.5998   -3.2385    0.5987 C   0  0  0  0  0  0  0  0  0  0  0  0
  -23.0173   -4.0076    1.5948 C   0  0  0  0  0  0  0  0  0  0  0  0
  -21.6396   -3.9317    1.7486 C   0  0  0  0  0  0  0  0  0  0  0  0
  -20.8960   -3.1130    0.9278 C   0  0  0  0  0  0  0  0  0  0  0  0
  -19.5150   -3.0366    1.1049 C   0  0  0  0  0  0  0  0  0  0  0  0
  -18.7215   -2.2227    0.3230 C   0  0  0  0  0  0  0  0  0  0  0  0
  -19.3554   -1.4684   -0.6627 C   0  0  0  0  0  0  0  0  0  0  0  0
  -20.7137   -1.5354   -0.8420 C   0  0  0  0  0  0  0  0  0  0  0  0
  -21.5012   -2.3686   -0.0437 C   0  0  0  0  0  0  0  0  0  0  0  0
  -18.5376    0.7991   -3.0100 H   0  0  0  0  0  0  0  0  0  0  0  0
  -20.9813    0.6830   -3.3463 H   0  0  0  0  0  0  0  0  0  0  0  0
  -23.1867   -0.2097   -2.7600 H   0  0  0  0  0  0  0  0  0  0  0  0
  -24.5477   -1.6706   -1.3609 H   0  0  0  0  0  0  0  0  0  0  0  0
  -23.6320   -4.6504    2.2402 H   0  0  0  0  0  0  0  0  0  0  0  0
  -21.1740   -4.5246    2.5216 H   0  0  0  0  0  0  0  0  0  0  0  0
  -19.0636   -3.6263    1.8693 H   0  0  0  0  0  0  0  0  0  0  0  0
  -17.6692   -2.1514    0.4624 H   0  0  0  0  0  0  0  0  0  0  0  0
   26.5824   -0.7599    2.2461 H   0  0  0  0  0  0  0  0  0  0  0  0
  -24.6710   -3.3007    0.4856 H   0  0  0  0  0  0  0  0  0  0  0  0
  1  2  2  0
  2  3  2  0
  2  4  1  0
  4  5  2  0
  5  6  1  0
  6  7  2  0
  7  8  1  0
  8  9  2  0
  9 10  1  0
 10 11  2  0
 11 12  1  0
 12 13  2  0
 13 14  1  0
 14 15  2  0
 15  2  1  0
  9  4  1  0
 15 10  1  0
  5 16  1  0
  7 17  1  0
  8 18  1  0
 11 19  1  0
 12 20  1  0
 14 21  1  0
 22 23  3  0
 23 24  1  0
 24 25  2  0
 25 26  1  0
 26 27  2  0
 27 28  1  0
 28 29  2  0
 29 24  1  0
 25 30  1  0
 27 31  1  0
 28 32  1  0
 33 34  2  0
 34 35  1  0
 35 36  2  0
 36 37  1  0
 37 38  2  0
 38 39  1  0
 39 40  2  0
 40 41  1  0
 41 42  2  0
 42 43  1  0
 43 44  2  0
 44 45  1  0
 45 46  2  0
 46 47  1  0
 47 48  2  0
 46 33  1  0
 47 36  1  0
 48 39  1  0
 48 43  1  0
 34 49  1  0
 35 50  1  0
 37 51  1  0
 38 52  1  0
 41 53  1  0
 42 54  1  0
 44 55  1  0
 45 56  1  0
 57 58  2  0
 58 59  1  0
 59 60  2  0
 60 61  1  0
 61 62  2  0
 62 63  1  0
 63 64  2  0
 64 65  1  0
 65 66  2  0
 66 67  1  0
 67 68  2  0
 68 69  1  0
 69 70  2  0
 70 71  1  0
 71 72  2  0
 70 57  1  0
 71 60  1  0
 72 63  1  0
 72 67  1  0
 58 73  1  0
 59 74  1  0
 61 75  1  0
 62 76  1  0
 65 77  1  0
 66 78  1  0
 68 79  1  0
 69 80  1  0
 81 82  2  0
 82 83  2  0
 82 84  1  0
 84 85  2  0
 85 86  1  0
 86 87  2  0
 87 88  1  0
 88 89  2  0
 89 90  1  0
 90 91  2  0
 91 92  1  0
 92 93  2  0
 93 94  1  0
 94 95  2  0
 95 82  1  0
 89 84  1  0
 95 90  1  0
 85 96  1  0
 87 97  1  0
 88 98  1  0
 91 99  1  0
 92100  1  0
 94101  1  0
102103  3  0
103104  1  0
104105  2  0
105106  1  0
106107  2  0
107108  1  0
108109  2  0
109104  1  0
105110  1  0
107111  1  0
108112  1  0
113114  2  0
114115  1  0
115116  2  0
116117  1  0
117118  2  0
118119  1  0
119120  2  0
120121  1  0
121122  2  0
122123  1  0
123124  2  0
124125  1  0
125126  2  0
126127  1  0
127128  2  0
126113  1  0
127116  1  0
128119  1  0
128123  1  0
114129  1  0
115130  1  0
117131  1  0
118132  1  0
121133  1  0
122134  1  0
124135  1  0
125136  1  0
137138  2  0
138139  1  0
139140  2  0
140141  1  0
141142  2  0
142143  1  0
143144  2  0
144145  1  0
145146  2  0
146147  1  0
147148  2  0
148149  1  0
149150  2  0
150151  1  0
151152  2  0
150137  1  0
151140  1  0
152143  1  0
152147  1  0
138153  1  0
139154  1  0
141155  1  0
142156  1  0
145157  1  0
146158  1  0
148159  1  0
149160  1  0
 13 26  1  0
 29 33  1  0
 40 57  1  0
 64 86  1  0
 93106  1  0
109113  1  0
120137  1  0
  6161  1  0
144162  1  0
M  END
