
     RDKit          3D

 40 43  0  0  0  0  0  0  0  0999 V2000
   -4.5781   -2.9969   -1.2158 N   0  0  0  0  0  0  0  0  0  0  0  0
   -4.9956   -1.9582   -0.8605 C   0  0  0  0  0  0  0  0  0  0  0  0
   -5.5357   -0.7191   -0.4382 C   0  0  0  0  0  0  0  0  0  0  0  0
   -6.9202   -0.6083   -0.4512 C   0  0  0  0  0  0  0  0  0  0  0  0
   -7.5479    0.5515   -0.0605 C   0  0  0  0  0  0  0  0  0  0  0  0
   -6.7782    1.6156    0.3491 C   0  0  0  0  0  0  0  0  0  0  0  0
   -5.4009    1.4693    0.3492 C   0  0  0  0  0  0  0  0  0  0  0  0
   -4.7478    0.3151   -0.0385 C   0  0  0  0  0  0  0  0  0  0  0  0
   -7.5618   -1.4394   -0.7727 H   0  0  0  0  0  0  0  0  0  0  0  0
   -7.2507    2.5486    0.6646 H   0  0  0  0  0  0  0  0  0  0  0  0
   -4.8518    2.3272    0.6766 H   0  0  0  0  0  0  0  0  0  0  0  0
   -3.2870    0.2427   -0.0089 C   0  0  0  0  0  0  0  0  0  0  0  0
   -2.4785    1.2797    0.3926 C   0  0  0  0  0  0  0  0  0  0  0  0
   -1.1214    1.1628    0.4024 N   0  0  0  0  0  0  0  0  0  0  0  0
   -0.5083    0.0294    0.0205 C   0  0  0  0  0  0  0  0  0  0  0  0
   -1.3127   -1.0126   -0.3827 C   0  0  0  0  0  0  0  0  0  0  0  0
   -2.6568   -0.8771   -0.3853 N   0  0  0  0  0  0  0  0  0  0  0  0
   -2.9239    2.2033    0.7059 H   0  0  0  0  0  0  0  0  0  0  0  0
   -0.8747   -1.9434   -0.6989 H   0  0  0  0  0  0  0  0  0  0  0  0
    4.1673   -3.3440   -1.2245 N   0  0  0  0  0  0  0  0  0  0  0  0
    3.6811   -2.3784   -0.7809 C   0  0  0  0  0  0  0  0  0  0  0  0
    3.0696   -1.1831   -0.2773 C   0  0  0  0  0  0  0  0  0  0  0  0
    1.6666   -1.1664   -0.3245 C   0  0  0  0  0  0  0  0  0  0  0  0
    0.9599   -0.0606    0.0440 C   0  0  0  0  0  0  0  0  0  0  0  0
    1.6956    1.0412    0.4656 C   0  0  0  0  0  0  0  0  0  0  0  0
    3.0598    1.0352    0.5168 C   0  0  0  0  0  0  0  0  0  0  0  0
    3.7910   -0.1094    0.1371 C   0  0  0  0  0  0  0  0  0  0  0  0
    1.1273   -2.0475   -0.6592 H   0  0  0  0  0  0  0  0  0  0  0  0
    1.1705    1.9586    0.7723 H   0  0  0  0  0  0  0  0  0  0  0  0
    3.6479    1.8899    0.8447 H   0  0  0  0  0  0  0  0  0  0  0  0
    5.2409   -0.0043    0.1742 C   0  0  0  0  0  0  0  0  0  0  0  0
    6.0385   -1.0420    0.5035 C   0  0  0  0  0  0  0  0  0  0  0  0
    7.3854   -0.9156    0.6065 N   0  0  0  0  0  0  0  0  0  0  0  0
    7.9364    0.2776    0.3754 C   0  0  0  0  0  0  0  0  0  0  0  0
    7.1300    1.3485    0.0393 C   0  0  0  0  0  0  0  0  0  0  0  0
    5.8110    1.2221   -0.0619 N   0  0  0  0  0  0  0  0  0  0  0  0
    5.7030   -2.0488    0.7619 H   0  0  0  0  0  0  0  0  0  0  0  0
    7.6564    2.2928   -0.1338 H   0  0  0  0  0  0  0  0  0  0  0  0
   -8.6204    0.6777   -0.0562 H   0  0  0  0  0  0  0  0  0  0  0  0
    9.0145    0.3664    0.4606 H   0  0  0  0  0  0  0  0  0  0  0  0
  1  2  3  0
  2  3  1  0
  3  4  2  0
  4  5  1  0
  5  6  2  0
  6  7  1  0
  7  8  2  0
  8  3  1  0
  4  9  1  0
  6 10  1  0
  7 11  1  0
 12 13  2  0
 13 14  1  0
 14 15  2  0
 15 16  1  0
 16 17  2  0
 17 12  1  0
 13 18  1  0
 16 19  1  0
 20 21  3  0
 21 22  1  0
 22 23  2  0
 23 24  1  0
 24 25  2  0
 25 26  1  0
 26 27  2  0
 27 22  1  0
 23 28  1  0
 25 29  1  0
 26 30  1  0
 31 32  2  0
 32 33  1  0
 33 34  2  0
 34 35  1  0
 35 36  2  0
 36 31  1  0
 32 37  1  0
 35 38  1  0
  8 12  1  0
 15 24  1  0
 27 31  1  0
  5 39  1  0
 34 40  1  0
M  END
