
     RDKit          3D

 98113  0  0  0  0  0  0  0  0999 V2000
  -13.7316   -0.0479    0.2292 C   0  0  0  0  0  0  0  0  0  0  0  0
  -13.6205   -1.0654    1.1570 C   0  0  0  0  0  0  0  0  0  0  0  0
  -12.3826   -1.4781    1.6087 C   0  0  0  0  0  0  0  0  0  0  0  0
  -11.2277   -0.8925    1.1533 C   0  0  0  0  0  0  0  0  0  0  0  0
   -9.9776   -1.3027    1.6019 C   0  0  0  0  0  0  0  0  0  0  0  0
   -8.8040   -0.7078    1.1379 C   0  0  0  0  0  0  0  0  0  0  0  0
   -8.8914    0.3032    0.2205 C   0  0  0  0  0  0  0  0  0  0  0  0
   -7.7519    0.9067   -0.2626 C   0  0  0  0  0  0  0  0  0  0  0  0
   -7.9011    1.9283   -1.2100 C   0  0  0  0  0  0  0  0  0  0  0  0
   -9.1221    2.3421   -1.6635 C   0  0  0  0  0  0  0  0  0  0  0  0
  -10.2566    1.7132   -1.1543 C   0  0  0  0  0  0  0  0  0  0  0  0
  -11.4757    2.1491   -1.6304 C   0  0  0  0  0  0  0  0  0  0  0  0
  -12.6134    1.5546   -1.1581 C   0  0  0  0  0  0  0  0  0  0  0  0
  -12.5564    0.5477   -0.2349 C   0  0  0  0  0  0  0  0  0  0  0  0
  -11.3262    0.1228    0.2283 C   0  0  0  0  0  0  0  0  0  0  0  0
  -10.1558    0.7031   -0.2219 C   0  0  0  0  0  0  0  0  0  0  0  0
  -14.5407   -1.5107    1.5032 H   0  0  0  0  0  0  0  0  0  0  0  0
  -12.3412   -2.2841    2.3417 H   0  0  0  0  0  0  0  0  0  0  0  0
   -9.9190   -2.1057    2.3290 H   0  0  0  0  0  0  0  0  0  0  0  0
   -7.8455   -1.0590    1.4909 H   0  0  0  0  0  0  0  0  0  0  0  0
   -6.9914    2.4001   -1.5909 H   0  0  0  0  0  0  0  0  0  0  0  0
   -9.2268    3.1446   -2.4100 H   0  0  0  0  0  0  0  0  0  0  0  0
  -11.5083    2.9498   -2.3651 H   0  0  0  0  0  0  0  0  0  0  0  0
  -13.5527    1.8997   -1.5302 H   0  0  0  0  0  0  0  0  0  0  0  0
   -6.4183    0.5973    0.2380 C   0  0  0  0  0  0  0  0  0  0  0  0
   -6.1885    0.8312    1.5927 C   0  0  0  0  0  0  0  0  0  0  0  0
   -4.9372    0.6505    2.1377 C   0  0  0  0  0  0  0  0  0  0  0  0
   -3.8651    0.2346    1.3751 C   0  0  0  0  0  0  0  0  0  0  0  0
   -2.6055    0.0540    1.9117 C   0  0  0  0  0  0  0  0  0  0  0  0
   -1.5404   -0.3599    1.1412 C   0  0  0  0  0  0  0  0  0  0  0  0
   -1.7287   -0.6039   -0.1999 C   0  0  0  0  0  0  0  0  0  0  0  0
   -0.6731   -1.0194   -1.0008 C   0  0  0  0  0  0  0  0  0  0  0  0
   -0.9319   -1.2392   -2.3350 C   0  0  0  0  0  0  0  0  0  0  0  0
   -2.1820   -1.0578   -2.8589 C   0  0  0  0  0  0  0  0  0  0  0  0
   -3.2302   -0.6452   -2.0611 C   0  0  0  0  0  0  0  0  0  0  0  0
   -4.4757   -0.4702   -2.6162 C   0  0  0  0  0  0  0  0  0  0  0  0
   -5.5616   -0.0527   -1.8539 C   0  0  0  0  0  0  0  0  0  0  0  0
   -5.3549    0.1823   -0.5231 C   0  0  0  0  0  0  0  0  0  0  0  0
   -4.0837    0.0000    0.0342 C   0  0  0  0  0  0  0  0  0  0  0  0
   -3.0133   -0.4136   -0.7230 C   0  0  0  0  0  0  0  0  0  0  0  0
   -7.0144    1.1569    2.2086 H   0  0  0  0  0  0  0  0  0  0  0  0
   -4.7423    0.8263    3.1852 H   0  0  0  0  0  0  0  0  0  0  0  0
   -2.4649    0.2462    2.9668 H   0  0  0  0  0  0  0  0  0  0  0  0
   -0.5949   -0.4577    1.6333 H   0  0  0  0  0  0  0  0  0  0  0  0
   -0.1145   -1.5604   -2.9590 H   0  0  0  0  0  0  0  0  0  0  0  0
   -2.3427   -1.2471   -3.9320 H   0  0  0  0  0  0  0  0  0  0  0  0
   -4.6279   -0.6572   -3.6629 H   0  0  0  0  0  0  0  0  0  0  0  0
   -6.5393    0.0666   -2.3154 H   0  0  0  0  0  0  0  0  0  0  0  0
    0.6608   -1.2907   -0.4346 C   0  0  0  0  0  0  0  0  0  0  0  0
    0.7281   -2.2763    0.5469 C   0  0  0  0  0  0  0  0  0  0  0  0
    1.9637   -2.6026    1.0413 C   0  0  0  0  0  0  0  0  0  0  0  0
    3.1214   -1.9746    0.5832 C   0  0  0  0  0  0  0  0  0  0  0  0
    4.3552   -2.3095    1.0923 C   0  0  0  0  0  0  0  0  0  0  0  0
    5.5420   -1.7119    0.6736 C   0  0  0  0  0  0  0  0  0  0  0  0
    5.4821   -0.7363   -0.2991 C   0  0  0  0  0  0  0  0  0  0  0  0
    6.6480   -0.1379   -0.7110 C   0  0  0  0  0  0  0  0  0  0  0  0
    6.5236    0.8544   -1.6931 C   0  0  0  0  0  0  0  0  0  0  0  0
    5.2985    1.2049   -2.2131 C   0  0  0  0  0  0  0  0  0  0  0  0
    4.1384    0.5876   -1.7830 C   0  0  0  0  0  0  0  0  0  0  0  0
    2.9103    0.9327   -2.2901 C   0  0  0  0  0  0  0  0  0  0  0  0
    1.7352    0.3108   -1.8500 C   0  0  0  0  0  0  0  0  0  0  0  0
    1.8084   -0.6688   -0.8870 C   0  0  0  0  0  0  0  0  0  0  0  0
    3.0619   -0.9996   -0.3865 C   0  0  0  0  0  0  0  0  0  0  0  0
    4.2293   -0.4005   -0.8096 C   0  0  0  0  0  0  0  0  0  0  0  0
   -0.1913   -2.7578    0.8977 H   0  0  0  0  0  0  0  0  0  0  0  0
    2.0250   -3.3684    1.8040 H   0  0  0  0  0  0  0  0  0  0  0  0
    4.4206   -3.0764    1.8572 H   0  0  0  0  0  0  0  0  0  0  0  0
    6.4892   -2.0020    1.1157 H   0  0  0  0  0  0  0  0  0  0  0  0
    7.3901    1.3732   -2.0705 H   0  0  0  0  0  0  0  0  0  0  0  0
    5.1666    1.9711   -2.9766 H   0  0  0  0  0  0  0  0  0  0  0  0
    2.8472    1.7012   -3.0462 H   0  0  0  0  0  0  0  0  0  0  0  0
    0.7953    0.6119   -2.2536 H   0  0  0  0  0  0  0  0  0  0  0  0
    7.9853   -0.4962   -0.2739 C   0  0  0  0  0  0  0  0  0  0  0  0
    8.4669   -1.7820   -0.4471 C   0  0  0  0  0  0  0  0  0  0  0  0
    9.7281   -2.2039   -0.1381 C   0  0  0  0  0  0  0  0  0  0  0  0
   10.5974   -1.2908    0.3865 C   0  0  0  0  0  0  0  0  0  0  0  0
   11.8683   -1.7391    0.6887 C   0  0  0  0  0  0  0  0  0  0  0  0
   12.7869   -0.8754    1.2141 C   0  0  0  0  0  0  0  0  0  0  0  0
   12.3974    0.4526    1.4294 C   0  0  0  0  0  0  0  0  0  0  0  0
   13.3024    1.3208    1.9566 C   0  0  0  0  0  0  0  0  0  0  0  0
   12.9459    2.6307    2.1838 C   0  0  0  0  0  0  0  0  0  0  0  0
   11.6726    3.0579    1.8759 C   0  0  0  0  0  0  0  0  0  0  0  0
   10.7351    2.2071    1.3427 C   0  0  0  0  0  0  0  0  0  0  0  0
    9.4637    2.5833    1.0228 C   0  0  0  0  0  0  0  0  0  0  0  0
    8.5165    1.7090    0.4806 C   0  0  0  0  0  0  0  0  0  0  0  0
    8.8926    0.4159    0.2640 C   0  0  0  0  0  0  0  0  0  0  0  0
   10.1939    0.0128    0.5906 C   0  0  0  0  0  0  0  0  0  0  0  0
   11.1194    0.8870    1.1214 C   0  0  0  0  0  0  0  0  0  0  0  0
    7.7492   -2.4988   -0.8695 H   0  0  0  0  0  0  0  0  0  0  0  0
   10.0506   -3.2464   -0.3032 H   0  0  0  0  0  0  0  0  0  0  0  0
   12.1516   -2.7681    0.5147 H   0  0  0  0  0  0  0  0  0  0  0  0
   13.7763   -1.2174    1.4507 H   0  0  0  0  0  0  0  0  0  0  0  0
   13.6886    3.3108    2.6054 H   0  0  0  0  0  0  0  0  0  0  0  0
   11.3834    4.0867    2.0501 H   0  0  0  0  0  0  0  0  0  0  0  0
    9.1521    3.6122    1.1915 H   0  0  0  0  0  0  0  0  0  0  0  0
    7.5368    2.0571    0.2679 H   0  0  0  0  0  0  0  0  0  0  0  0
  -14.6558    0.3269   -0.1669 H   0  0  0  0  0  0  0  0  0  0  0  0
   14.2964    0.9401    2.1830 H   0  0  0  0  0  0  0  0  0  0  0  0
  1  2  2  0
  2  3  1  0
  3  4  2  0
  4  5  1  0
  5  6  2  0
  6  7  1  0
  7  8  2  0
  8  9  1  0
  9 10  2  0
 10 11  1  0
 11 12  2  0
 12 13  1  0
 13 14  2  0
 14 15  1  0
 15 16  2  0
 14  1  1  0
 15  4  1  0
 16  7  1  0
 16 11  1  0
  2 17  1  0
  3 18  1  0
  5 19  1  0
  6 20  1  0
  9 21  1  0
 10 22  1  0
 12 23  1  0
 13 24  1  0
 25 26  2  0
 26 27  1  0
 27 28  2  0
 28 29  1  0
 29 30  2  0
 30 31  1  0
 31 32  2  0
 32 33  1  0
 33 34  2  0
 34 35  1  0
 35 36  2  0
 36 37  1  0
 37 38  2  0
 38 39  1  0
 39 40  2  0
 38 25  1  0
 39 28  1  0
 40 31  1  0
 40 35  1  0
 26 41  1  0
 27 42  1  0
 29 43  1  0
 30 44  1  0
 33 45  1  0
 34 46  1  0
 36 47  1  0
 37 48  1  0
 49 50  2  0
 50 51  1  0
 51 52  2  0
 52 53  1  0
 53 54  2  0
 54 55  1  0
 55 56  2  0
 56 57  1  0
 57 58  2  0
 58 59  1  0
 59 60  2  0
 60 61  1  0
 61 62  2  0
 62 63  1  0
 63 64  2  0
 62 49  1  0
 63 52  1  0
 64 55  1  0
 64 59  1  0
 50 65  1  0
 51 66  1  0
 53 67  1  0
 54 68  1  0
 57 69  1  0
 58 70  1  0
 60 71  1  0
 61 72  1  0
 73 74  2  0
 74 75  1  0
 75 76  2  0
 76 77  1  0
 77 78  2  0
 78 79  1  0
 79 80  2  0
 80 81  1  0
 81 82  2  0
 82 83  1  0
 83 84  2  0
 84 85  1  0
 85 86  2  0
 86 87  1  0
 87 88  2  0
 86 73  1  0
 87 76  1  0
 88 79  1  0
 88 83  1  0
 74 89  1  0
 75 90  1  0
 77 91  1  0
 78 92  1  0
 81 93  1  0
 82 94  1  0
 84 95  1  0
 85 96  1  0
  8 25  1  0
 32 49  1  0
 56 73  1  0
  1 97  1  0
 80 98  1  0
M  END
