162

O         21.15810        4.22890       -1.27250
S         21.39380        2.87680       -0.66970
O         21.67560        1.81210       -1.67890
C         22.51890        2.90900        0.64780
C         23.88590        3.19970        0.66180
C         24.59080        3.17420        1.83780
C         23.92310        2.85720        2.99910
C         22.59000        2.57930        2.94840
C         21.82340        2.59130        1.78310
C         20.41930        2.33070        1.57300
C         19.44600        1.97570        2.52210
C         18.15210        1.75420        2.14460
C         17.70980        1.86000        0.82670
C         18.65520        2.20840       -0.10140
C         19.97860        2.43250        0.29820
H         24.36490        3.44440       -0.27440
H         24.47410        2.81890        3.95320
H         22.08230        2.33330        3.89250
H         19.73930        1.87890        3.57510
H         17.39190        1.47880        2.86800
H         18.38800        2.31430       -1.13330
C         16.30210        1.61220        0.52660
C         15.33140        2.41150        1.09740
C         13.98730        2.20680        0.88250
C         13.62240        1.13340        0.04460
C         12.30380        0.87210       -0.16640
C         11.90550       -0.19460       -0.95070
C         12.83530       -1.04100       -1.55010
C         12.38570       -2.11670       -2.33360
C         13.33740       -2.90680       -2.91180
C         14.70000       -2.63330       -2.70680
C         15.09630       -1.57510       -1.92500
C         16.42270       -1.30530       -1.68060
C         16.82830       -0.23730       -0.86090
C         15.90830        0.57620       -0.28780
C         14.56440        0.32560       -0.53540
C         14.15610       -0.74820       -1.32360
H         15.66750        3.23040        1.74050
H         13.23000        2.81450        1.31980
H         11.55750        1.50480        0.28920
H         10.86930       -0.36290       -1.14740
H         13.01500       -3.74470       -3.52450
H         15.44290       -3.24710       -3.17370
H         17.16980       -1.93150       -2.13140
H         17.87790       -0.08800       -0.68990
N          7.43560       -2.77500       -5.60220
C          8.04630       -2.72460       -4.62820
C          8.80070       -2.68800       -3.38990
C         10.18690       -2.45520       -3.46240
C         10.95630       -2.41020       -2.34430
C         10.30080       -2.61480       -1.11950
C          8.97700       -2.83840       -1.03360
C          8.17810       -2.87590       -2.18790
H         10.61870       -2.31040       -4.44080
H         10.92010       -2.58020       -0.23270
H          8.46610       -2.99340       -0.09350
C          6.75670       -3.08930       -2.03790
C          6.12440       -4.19570       -2.50980
C          4.76810       -4.44020       -2.23190
C          4.03410       -3.56010       -1.46750
C          2.69950       -3.79050       -1.18960
C          1.93800       -2.92180       -0.43460
C          2.58200       -1.78360        0.04360
C          1.83080       -0.90780        0.76420
C          2.45850        0.25700        1.22170
C          3.78440        0.49080        0.94870
C          4.55010       -0.40160        0.21820
C          5.87520       -0.14160       -0.05490
C          6.63860       -1.03640       -0.80470
C          6.00910       -2.17890       -1.25690
C          4.68380       -2.42760       -0.99060
C          3.93020       -1.54780       -0.23310
H          6.66420       -4.92350       -3.12790
H          4.29710       -5.34130       -2.63610
H          2.22600       -4.70520       -1.57780
H          0.90430       -3.14320       -0.25110
H          1.87140        0.95850        1.79090
H          4.27110        1.40080        1.30100
H          6.36140        0.75140        0.29460
H          7.67290       -0.81810       -1.02680
O         -2.97280        2.20310        1.18580
S         -3.19760        0.80350        0.69660
O         -3.45690        0.73570       -0.76030
C         -1.81280       -0.23350        1.08450
C         -0.49240       -0.13730        0.69760
C          0.43490       -1.07490        1.12140
C         -0.04010       -2.08000        1.92380
C         -1.35900       -2.17260        2.30430
C         -2.30440       -1.22410        1.88400
C         -3.70490       -1.13920        2.18720
C         -4.50400       -1.97450        2.97750
C         -5.83060       -1.76940        3.19440
C         -6.45660       -0.70370        2.62960
C         -5.70610        0.17120        1.82760
C         -4.35820       -0.08010        1.63560
H         -0.18030        0.66550        0.05090
H          0.68590       -2.84660        2.27340
H         -1.67920       -2.99700        2.94650
H         -4.05410       -2.84130        3.44920
H         -6.38650       -2.45500        3.82290
H         -6.19560        1.01880        1.38150
C         -7.89460       -0.40890        2.78250
C         -8.40960        0.24510        3.86470
C         -9.75810        0.56010        3.90670
C        -10.61200        0.22440        2.86460
C        -11.95670        0.54410        2.88570
C        -12.79990        0.20820        1.82330
C        -12.29030       -0.44100        0.74990
C        -13.13630       -0.76810       -0.32090
C        -12.58080       -1.41320       -1.37530
C        -11.23040       -1.74950       -1.42460
C        -10.39590       -1.41530       -0.35210
C         -9.04050       -1.73550       -0.39800
C         -8.19850       -1.40690        0.64600
C         -8.76430       -0.74730        1.73280
C        -10.10160       -0.43810        1.76800
C        -10.95310       -0.76870        0.71090
H         -7.73240        0.50690        4.67640
H        -10.14880        1.08130        4.76040
H        -12.35030        1.07880        3.75490
H        -13.84620        0.48730        1.89880
H        -13.20980       -1.69170       -2.24360
H        -10.77200       -2.25890       -2.24480
H         -8.61830       -2.25420       -1.25000
H         -7.14270       -1.65310        0.63440
N        -18.55550       -1.86590        1.96750
C        -17.77470       -1.27550        1.33050
C        -16.79900       -0.55420        0.52080
C        -15.49850       -1.01020        0.44730
C        -14.53860       -0.38790       -0.28980
C        -14.91240        0.76050       -0.99860
C        -16.19120        1.24350       -0.94950
C        -17.15000        0.58100       -0.17740
H        -15.24140       -1.90830        1.00240
H        -14.19750        1.30710       -1.60230
H        -16.50230        2.12870       -1.49350
C        -18.49740        1.15450       -0.02530
C        -18.94270        1.48720        1.26620
C        -20.15000        2.11640        1.43780
C        -20.96470        2.44110        0.37110
C        -22.17490        3.08810        0.56030
C        -22.96790        3.41680       -0.52470
C        -22.57510        3.10930       -1.81460
C        -23.37560        3.43690       -2.89650
C        -23.00240        3.13090       -4.17860
C        -21.78300        2.47510       -4.33070
C        -20.98420        2.14970       -3.25830
C        -19.76620        1.50370       -3.43400
C        -18.95150        1.17590       -2.37470
C        -19.30860        1.47680       -1.07530
C        -20.54660        2.12010       -0.90790
C        -21.35510        2.45790       -1.96340
H        -18.30490        1.23090        2.08530
H        -20.52340        2.39590        2.43270
H        -22.44350        3.31620        1.59080
H        -23.91510        3.91720       -0.33860
H        -23.63140        3.39170       -5.01580
H        -21.49730        2.23200       -5.34810
H        -19.47590        1.26310       -4.45270
H        -18.02310        0.64550       -2.54460
H         25.65120        3.38900        1.92630
H        -24.31140        3.95310       -2.71480
