
     RDKit          3D

162185  0  0  0  0  0  0  0  0999 V2000
   21.1581    4.2289   -1.2725 O   0  0  0  0  0  0  0  0  0  0  0  0
   21.3938    2.8768   -0.6697 S   0  0  0  0  0  0  0  0  0  0  0  0
   21.6756    1.8121   -1.6789 O   0  0  0  0  0  0  0  0  0  0  0  0
   22.5189    2.9090    0.6478 C   0  0  0  0  0  0  0  0  0  0  0  0
   23.8859    3.1997    0.6618 C   0  0  0  0  0  0  0  0  0  0  0  0
   24.5908    3.1742    1.8378 C   0  0  0  0  0  0  0  0  0  0  0  0
   23.9231    2.8572    2.9991 C   0  0  0  0  0  0  0  0  0  0  0  0
   22.5900    2.5793    2.9484 C   0  0  0  0  0  0  0  0  0  0  0  0
   21.8234    2.5913    1.7831 C   0  0  0  0  0  0  0  0  0  0  0  0
   20.4193    2.3307    1.5730 C   0  0  0  0  0  0  0  0  0  0  0  0
   19.4460    1.9757    2.5221 C   0  0  0  0  0  0  0  0  0  0  0  0
   18.1521    1.7542    2.1446 C   0  0  0  0  0  0  0  0  0  0  0  0
   17.7098    1.8600    0.8267 C   0  0  0  0  0  0  0  0  0  0  0  0
   18.6552    2.2084   -0.1014 C   0  0  0  0  0  0  0  0  0  0  0  0
   19.9786    2.4325    0.2982 C   0  0  0  0  0  0  0  0  0  0  0  0
   24.3649    3.4444   -0.2744 H   0  0  0  0  0  0  0  0  0  0  0  0
   24.4741    2.8189    3.9532 H   0  0  0  0  0  0  0  0  0  0  0  0
   22.0823    2.3333    3.8925 H   0  0  0  0  0  0  0  0  0  0  0  0
   19.7393    1.8789    3.5751 H   0  0  0  0  0  0  0  0  0  0  0  0
   17.3919    1.4788    2.8680 H   0  0  0  0  0  0  0  0  0  0  0  0
   18.3880    2.3143   -1.1333 H   0  0  0  0  0  0  0  0  0  0  0  0
   16.3021    1.6122    0.5266 C   0  0  0  0  0  0  0  0  0  0  0  0
   15.3314    2.4115    1.0974 C   0  0  0  0  0  0  0  0  0  0  0  0
   13.9873    2.2068    0.8825 C   0  0  0  0  0  0  0  0  0  0  0  0
   13.6224    1.1334    0.0446 C   0  0  0  0  0  0  0  0  0  0  0  0
   12.3038    0.8721   -0.1664 C   0  0  0  0  0  0  0  0  0  0  0  0
   11.9055   -0.1946   -0.9507 C   0  0  0  0  0  0  0  0  0  0  0  0
   12.8353   -1.0410   -1.5501 C   0  0  0  0  0  0  0  0  0  0  0  0
   12.3857   -2.1167   -2.3336 C   0  0  0  0  0  0  0  0  0  0  0  0
   13.3374   -2.9068   -2.9118 C   0  0  0  0  0  0  0  0  0  0  0  0
   14.7000   -2.6333   -2.7068 C   0  0  0  0  0  0  0  0  0  0  0  0
   15.0963   -1.5751   -1.9250 C   0  0  0  0  0  0  0  0  0  0  0  0
   16.4227   -1.3053   -1.6806 C   0  0  0  0  0  0  0  0  0  0  0  0
   16.8283   -0.2373   -0.8609 C   0  0  0  0  0  0  0  0  0  0  0  0
   15.9083    0.5762   -0.2878 C   0  0  0  0  0  0  0  0  0  0  0  0
   14.5644    0.3256   -0.5354 C   0  0  0  0  0  0  0  0  0  0  0  0
   14.1561   -0.7482   -1.3236 C   0  0  0  0  0  0  0  0  0  0  0  0
   15.6675    3.2304    1.7405 H   0  0  0  0  0  0  0  0  0  0  0  0
   13.2300    2.8145    1.3198 H   0  0  0  0  0  0  0  0  0  0  0  0
   11.5575    1.5048    0.2892 H   0  0  0  0  0  0  0  0  0  0  0  0
   10.8693   -0.3629   -1.1474 H   0  0  0  0  0  0  0  0  0  0  0  0
   13.0150   -3.7447   -3.5245 H   0  0  0  0  0  0  0  0  0  0  0  0
   15.4429   -3.2471   -3.1737 H   0  0  0  0  0  0  0  0  0  0  0  0
   17.1698   -1.9315   -2.1314 H   0  0  0  0  0  0  0  0  0  0  0  0
   17.8779   -0.0880   -0.6899 H   0  0  0  0  0  0  0  0  0  0  0  0
    7.4356   -2.7750   -5.6022 N   0  0  0  0  0  0  0  0  0  0  0  0
    8.0463   -2.7246   -4.6282 C   0  0  0  0  0  0  0  0  0  0  0  0
    8.8007   -2.6880   -3.3899 C   0  0  0  0  0  0  0  0  0  0  0  0
   10.1869   -2.4552   -3.4624 C   0  0  0  0  0  0  0  0  0  0  0  0
   10.9563   -2.4102   -2.3443 C   0  0  0  0  0  0  0  0  0  0  0  0
   10.3008   -2.6148   -1.1195 C   0  0  0  0  0  0  0  0  0  0  0  0
    8.9770   -2.8384   -1.0336 C   0  0  0  0  0  0  0  0  0  0  0  0
    8.1781   -2.8759   -2.1879 C   0  0  0  0  0  0  0  0  0  0  0  0
   10.6187   -2.3104   -4.4408 H   0  0  0  0  0  0  0  0  0  0  0  0
   10.9201   -2.5802   -0.2327 H   0  0  0  0  0  0  0  0  0  0  0  0
    8.4661   -2.9934   -0.0935 H   0  0  0  0  0  0  0  0  0  0  0  0
    6.7567   -3.0893   -2.0379 C   0  0  0  0  0  0  0  0  0  0  0  0
    6.1244   -4.1957   -2.5098 C   0  0  0  0  0  0  0  0  0  0  0  0
    4.7681   -4.4402   -2.2319 C   0  0  0  0  0  0  0  0  0  0  0  0
    4.0341   -3.5601   -1.4675 C   0  0  0  0  0  0  0  0  0  0  0  0
    2.6995   -3.7905   -1.1896 C   0  0  0  0  0  0  0  0  0  0  0  0
    1.9380   -2.9218   -0.4346 C   0  0  0  0  0  0  0  0  0  0  0  0
    2.5820   -1.7836    0.0436 C   0  0  0  0  0  0  0  0  0  0  0  0
    1.8308   -0.9078    0.7642 C   0  0  0  0  0  0  0  0  0  0  0  0
    2.4585    0.2570    1.2217 C   0  0  0  0  0  0  0  0  0  0  0  0
    3.7844    0.4908    0.9487 C   0  0  0  0  0  0  0  0  0  0  0  0
    4.5501   -0.4016    0.2182 C   0  0  0  0  0  0  0  0  0  0  0  0
    5.8752   -0.1416   -0.0549 C   0  0  0  0  0  0  0  0  0  0  0  0
    6.6386   -1.0364   -0.8047 C   0  0  0  0  0  0  0  0  0  0  0  0
    6.0091   -2.1789   -1.2569 C   0  0  0  0  0  0  0  0  0  0  0  0
    4.6838   -2.4276   -0.9906 C   0  0  0  0  0  0  0  0  0  0  0  0
    3.9302   -1.5478   -0.2331 C   0  0  0  0  0  0  0  0  0  0  0  0
    6.6642   -4.9235   -3.1279 H   0  0  0  0  0  0  0  0  0  0  0  0
    4.2971   -5.3413   -2.6361 H   0  0  0  0  0  0  0  0  0  0  0  0
    2.2260   -4.7052   -1.5778 H   0  0  0  0  0  0  0  0  0  0  0  0
    0.9043   -3.1432   -0.2511 H   0  0  0  0  0  0  0  0  0  0  0  0
    1.8714    0.9585    1.7909 H   0  0  0  0  0  0  0  0  0  0  0  0
    4.2711    1.4008    1.3010 H   0  0  0  0  0  0  0  0  0  0  0  0
    6.3614    0.7514    0.2946 H   0  0  0  0  0  0  0  0  0  0  0  0
    7.6729   -0.8181   -1.0268 H   0  0  0  0  0  0  0  0  0  0  0  0
   -2.9728    2.2031    1.1858 O   0  0  0  0  0  0  0  0  0  0  0  0
   -3.1976    0.8035    0.6966 S   0  0  0  0  0  0  0  0  0  0  0  0
   -3.4569    0.7357   -0.7603 O   0  0  0  0  0  0  0  0  0  0  0  0
   -1.8128   -0.2335    1.0845 C   0  0  0  0  0  0  0  0  0  0  0  0
   -0.4924   -0.1373    0.6976 C   0  0  0  0  0  0  0  0  0  0  0  0
    0.4349   -1.0749    1.1214 C   0  0  0  0  0  0  0  0  0  0  0  0
   -0.0401   -2.0800    1.9238 C   0  0  0  0  0  0  0  0  0  0  0  0
   -1.3590   -2.1726    2.3043 C   0  0  0  0  0  0  0  0  0  0  0  0
   -2.3044   -1.2241    1.8840 C   0  0  0  0  0  0  0  0  0  0  0  0
   -3.7049   -1.1392    2.1872 C   0  0  0  0  0  0  0  0  0  0  0  0
   -4.5040   -1.9745    2.9775 C   0  0  0  0  0  0  0  0  0  0  0  0
   -5.8306   -1.7694    3.1944 C   0  0  0  0  0  0  0  0  0  0  0  0
   -6.4566   -0.7037    2.6296 C   0  0  0  0  0  0  0  0  0  0  0  0
   -5.7061    0.1712    1.8276 C   0  0  0  0  0  0  0  0  0  0  0  0
   -4.3582   -0.0801    1.6356 C   0  0  0  0  0  0  0  0  0  0  0  0
   -0.1803    0.6655    0.0509 H   0  0  0  0  0  0  0  0  0  0  0  0
    0.6859   -2.8466    2.2734 H   0  0  0  0  0  0  0  0  0  0  0  0
   -1.6792   -2.9970    2.9465 H   0  0  0  0  0  0  0  0  0  0  0  0
   -4.0541   -2.8413    3.4492 H   0  0  0  0  0  0  0  0  0  0  0  0
   -6.3865   -2.4550    3.8229 H   0  0  0  0  0  0  0  0  0  0  0  0
   -6.1956    1.0188    1.3815 H   0  0  0  0  0  0  0  0  0  0  0  0
   -7.8946   -0.4089    2.7825 C   0  0  0  0  0  0  0  0  0  0  0  0
   -8.4096    0.2451    3.8647 C   0  0  0  0  0  0  0  0  0  0  0  0
   -9.7581    0.5601    3.9067 C   0  0  0  0  0  0  0  0  0  0  0  0
  -10.6120    0.2244    2.8646 C   0  0  0  0  0  0  0  0  0  0  0  0
  -11.9567    0.5441    2.8857 C   0  0  0  0  0  0  0  0  0  0  0  0
  -12.7999    0.2082    1.8233 C   0  0  0  0  0  0  0  0  0  0  0  0
  -12.2903   -0.4410    0.7499 C   0  0  0  0  0  0  0  0  0  0  0  0
  -13.1363   -0.7681   -0.3209 C   0  0  0  0  0  0  0  0  0  0  0  0
  -12.5808   -1.4132   -1.3753 C   0  0  0  0  0  0  0  0  0  0  0  0
  -11.2304   -1.7495   -1.4246 C   0  0  0  0  0  0  0  0  0  0  0  0
  -10.3959   -1.4153   -0.3521 C   0  0  0  0  0  0  0  0  0  0  0  0
   -9.0405   -1.7355   -0.3980 C   0  0  0  0  0  0  0  0  0  0  0  0
   -8.1985   -1.4069    0.6460 C   0  0  0  0  0  0  0  0  0  0  0  0
   -8.7643   -0.7473    1.7328 C   0  0  0  0  0  0  0  0  0  0  0  0
  -10.1016   -0.4381    1.7680 C   0  0  0  0  0  0  0  0  0  0  0  0
  -10.9531   -0.7687    0.7109 C   0  0  0  0  0  0  0  0  0  0  0  0
   -7.7324    0.5069    4.6764 H   0  0  0  0  0  0  0  0  0  0  0  0
  -10.1488    1.0813    4.7604 H   0  0  0  0  0  0  0  0  0  0  0  0
  -12.3503    1.0788    3.7549 H   0  0  0  0  0  0  0  0  0  0  0  0
  -13.8462    0.4873    1.8988 H   0  0  0  0  0  0  0  0  0  0  0  0
  -13.2098   -1.6917   -2.2436 H   0  0  0  0  0  0  0  0  0  0  0  0
  -10.7720   -2.2589   -2.2448 H   0  0  0  0  0  0  0  0  0  0  0  0
   -8.6183   -2.2542   -1.2500 H   0  0  0  0  0  0  0  0  0  0  0  0
   -7.1427   -1.6531    0.6344 H   0  0  0  0  0  0  0  0  0  0  0  0
  -18.5555   -1.8659    1.9675 N   0  0  0  0  0  0  0  0  0  0  0  0
  -17.7747   -1.2755    1.3305 C   0  0  0  0  0  0  0  0  0  0  0  0
  -16.7990   -0.5542    0.5208 C   0  0  0  0  0  0  0  0  0  0  0  0
  -15.4985   -1.0102    0.4473 C   0  0  0  0  0  0  0  0  0  0  0  0
  -14.5386   -0.3879   -0.2898 C   0  0  0  0  0  0  0  0  0  0  0  0
  -14.9124    0.7605   -0.9986 C   0  0  0  0  0  0  0  0  0  0  0  0
  -16.1912    1.2435   -0.9495 C   0  0  0  0  0  0  0  0  0  0  0  0
  -17.1500    0.5810   -0.1774 C   0  0  0  0  0  0  0  0  0  0  0  0
  -15.2414   -1.9083    1.0024 H   0  0  0  0  0  0  0  0  0  0  0  0
  -14.1975    1.3071   -1.6023 H   0  0  0  0  0  0  0  0  0  0  0  0
  -16.5023    2.1287   -1.4935 H   0  0  0  0  0  0  0  0  0  0  0  0
  -18.4974    1.1545   -0.0253 C   0  0  0  0  0  0  0  0  0  0  0  0
  -18.9427    1.4872    1.2662 C   0  0  0  0  0  0  0  0  0  0  0  0
  -20.1500    2.1164    1.4378 C   0  0  0  0  0  0  0  0  0  0  0  0
  -20.9647    2.4411    0.3711 C   0  0  0  0  0  0  0  0  0  0  0  0
  -22.1749    3.0881    0.5603 C   0  0  0  0  0  0  0  0  0  0  0  0
  -22.9679    3.4168   -0.5247 C   0  0  0  0  0  0  0  0  0  0  0  0
  -22.5751    3.1093   -1.8146 C   0  0  0  0  0  0  0  0  0  0  0  0
  -23.3756    3.4369   -2.8965 C   0  0  0  0  0  0  0  0  0  0  0  0
  -23.0024    3.1309   -4.1786 C   0  0  0  0  0  0  0  0  0  0  0  0
  -21.7830    2.4751   -4.3307 C   0  0  0  0  0  0  0  0  0  0  0  0
  -20.9842    2.1497   -3.2583 C   0  0  0  0  0  0  0  0  0  0  0  0
  -19.7662    1.5037   -3.4340 C   0  0  0  0  0  0  0  0  0  0  0  0
  -18.9515    1.1759   -2.3747 C   0  0  0  0  0  0  0  0  0  0  0  0
  -19.3086    1.4768   -1.0753 C   0  0  0  0  0  0  0  0  0  0  0  0
  -20.5466    2.1201   -0.9079 C   0  0  0  0  0  0  0  0  0  0  0  0
  -21.3551    2.4579   -1.9634 C   0  0  0  0  0  0  0  0  0  0  0  0
  -18.3049    1.2309    2.0853 H   0  0  0  0  0  0  0  0  0  0  0  0
  -20.5234    2.3959    2.4327 H   0  0  0  0  0  0  0  0  0  0  0  0
  -22.4435    3.3162    1.5908 H   0  0  0  0  0  0  0  0  0  0  0  0
  -23.9151    3.9172   -0.3386 H   0  0  0  0  0  0  0  0  0  0  0  0
  -23.6314    3.3917   -5.0158 H   0  0  0  0  0  0  0  0  0  0  0  0
  -21.4973    2.2320   -5.3481 H   0  0  0  0  0  0  0  0  0  0  0  0
  -19.4759    1.2631   -4.4527 H   0  0  0  0  0  0  0  0  0  0  0  0
  -18.0231    0.6455   -2.5446 H   0  0  0  0  0  0  0  0  0  0  0  0
   25.6512    3.3890    1.9263 H   0  0  0  0  0  0  0  0  0  0  0  0
  -24.3114    3.9531   -2.7148 H   0  0  0  0  0  0  0  0  0  0  0  0
  1  2  2  0
  2  3  2  0
  2  4  1  0
  4  5  2  0
  5  6  1  0
  6  7  2  0
  7  8  1  0
  8  9  2  0
  9 10  1  0
 10 11  2  0
 11 12  1  0
 12 13  2  0
 13 14  1  0
 14 15  2  0
 15  2  1  0
  9  4  1  0
 15 10  1  0
  5 16  1  0
  7 17  1  0
  8 18  1  0
 11 19  1  0
 12 20  1  0
 14 21  1  0
 22 23  2  0
 23 24  1  0
 24 25  2  0
 25 26  1  0
 26 27  2  0
 27 28  1  0
 28 29  2  0
 29 30  1  0
 30 31  2  0
 31 32  1  0
 32 33  2  0
 33 34  1  0
 34 35  2  0
 35 36  1  0
 36 37  2  0
 35 22  1  0
 36 25  1  0
 37 28  1  0
 37 32  1  0
 23 38  1  0
 24 39  1  0
 26 40  1  0
 27 41  1  0
 30 42  1  0
 31 43  1  0
 33 44  1  0
 34 45  1  0
 46 47  3  0
 47 48  1  0
 48 49  2  0
 49 50  1  0
 50 51  2  0
 51 52  1  0
 52 53  2  0
 53 48  1  0
 49 54  1  0
 51 55  1  0
 52 56  1  0
 57 58  2  0
 58 59  1  0
 59 60  2  0
 60 61  1  0
 61 62  2  0
 62 63  1  0
 63 64  2  0
 64 65  1  0
 65 66  2  0
 66 67  1  0
 67 68  2  0
 68 69  1  0
 69 70  2  0
 70 71  1  0
 71 72  2  0
 70 57  1  0
 71 60  1  0
 72 63  1  0
 72 67  1  0
 58 73  1  0
 59 74  1  0
 61 75  1  0
 62 76  1  0
 65 77  1  0
 66 78  1  0
 68 79  1  0
 69 80  1  0
 81 82  2  0
 82 83  2  0
 82 84  1  0
 84 85  2  0
 85 86  1  0
 86 87  2  0
 87 88  1  0
 88 89  2  0
 89 90  1  0
 90 91  2  0
 91 92  1  0
 92 93  2  0
 93 94  1  0
 94 95  2  0
 95 82  1  0
 89 84  1  0
 95 90  1  0
 85 96  1  0
 87 97  1  0
 88 98  1  0
 91 99  1  0
 92100  1  0
 94101  1  0
102103  2  0
103104  1  0
104105  2  0
105106  1  0
106107  2  0
107108  1  0
108109  2  0
109110  1  0
110111  2  0
111112  1  0
112113  2  0
113114  1  0
114115  2  0
115116  1  0
116117  2  0
115102  1  0
116105  1  0
117108  1  0
117112  1  0
103118  1  0
104119  1  0
106120  1  0
107121  1  0
110122  1  0
111123  1  0
113124  1  0
114125  1  0
126127  3  0
127128  1  0
128129  2  0
129130  1  0
130131  2  0
131132  1  0
132133  2  0
133128  1  0
129134  1  0
131135  1  0
132136  1  0
137138  2  0
138139  1  0
139140  2  0
140141  1  0
141142  2  0
142143  1  0
143144  2  0
144145  1  0
145146  2  0
146147  1  0
147148  2  0
148149  1  0
149150  2  0
150151  1  0
151152  2  0
150137  1  0
151140  1  0
152143  1  0
152147  1  0
138153  1  0
139154  1  0
141155  1  0
142156  1  0
145157  1  0
146158  1  0
148159  1  0
149160  1  0
 13 22  1  0
 29 50  1  0
 53 57  1  0
 64 86  1  0
 93102  1  0
109130  1  0
133137  1  0
  6161  1  0
144162  1  0
M  END
