130

O         18.69960       -0.12510        2.16040
S         18.70800       -1.04130        0.96660
O         18.43940       -2.47230        1.34810
C         20.16380       -0.84900        0.02520
C         21.46690       -1.09940        0.36240
C         22.48540       -0.86520       -0.55890
C         22.11110       -0.38360       -1.78330
C         20.80170       -0.13640       -2.11040
C         19.75910       -0.36680       -1.19410
C         18.35490       -0.19060       -1.35470
C         17.63770        0.25580       -2.48770
C         16.26330        0.32400       -2.44320
C         15.49880       -0.01640       -1.35130
C         16.21320       -0.45340       -0.23320
C         17.58050       -0.52530       -0.27120
H         21.71360       -1.48150        1.34700
H         22.92740       -0.20570       -2.49920
H         20.60390        0.24240       -3.09990
H         18.11830        0.54960       -3.39310
H         15.72720        0.67290       -3.32670
H         15.68860       -0.73480        0.65870
C         14.04630       -0.01360       -1.38410
C         13.42900       -0.88420       -2.29850
C         12.06450       -1.01990       -2.37620
C         11.27400       -0.27650       -1.52890
C          9.90970       -0.39500       -1.57310
C          9.06790        0.32120       -0.73950
C          9.61870        1.18440        0.16590
C          8.81850        1.94160        1.01900
C          9.38980        2.81580        1.90640
C         10.78740        2.92920        1.94230
C         11.59550        2.18280        1.10500
C         12.97450        2.31830        1.17010
C         13.83010        1.58650        0.34370
C         13.23580        0.71750       -0.55210
C         11.84250        0.59780       -0.61110
C         11.00210        1.31040        0.21610
H         14.07580       -1.45770       -2.95330
H         11.58570       -1.70150       -3.09270
H          9.44470       -1.07570       -2.28980
H          8.00790        0.17740       -0.84480
H          8.83830        3.43450        2.59460
H         11.22440        3.62810        2.65120
H         13.40260        3.01100        1.87890
H         14.90090        1.70420        0.40280
N          4.96930       -2.31290        2.17230
C          5.23690       -1.20090        1.88650
C          5.59970        0.16180        1.50570
C          6.94820        0.49170        1.47270
C          7.37730        1.74050        1.04510
C          6.43500        2.64660        0.65390
C          5.11050        2.30560        0.69330
C          4.64080        1.05320        1.12110
H          7.64910       -0.28360        1.80020
H          6.72430        3.62180        0.31630
H          4.32750        3.01960        0.38400
C          3.23220        0.73480        1.05960
C          2.56520        0.05590        2.03310
N          1.22320       -0.19640        1.94930
C          0.50060        0.22880        0.87700
C          1.15900        0.90690       -0.09050
N          2.47920        1.16120       -0.01800
H          3.09420       -0.26560        2.94000
H          0.57040        1.24400       -0.94360
O         -4.57620        1.56020       -1.71630
S         -4.34250        0.12010       -1.45320
O         -4.03150       -0.65580       -2.70880
C         -3.09580       -0.12540       -0.23960
C         -1.74090        0.21010       -0.24690
C         -0.93460       -0.08130        0.81630
C         -1.54190       -0.71770        1.88190
C         -2.86160       -1.05070        1.90250
C         -3.70110       -0.75490        0.80640
C         -5.11040       -1.04320        0.63480
C         -6.01250       -1.69120        1.50100
C         -7.30030       -1.89610        1.16970
C         -7.85100       -1.49400       -0.03640
C         -6.98960       -0.85840       -0.89650
C         -5.64330       -0.64210       -0.55670
H         -1.35210        0.70170       -1.11210
H         -0.90570       -0.95630        2.75300
H         -3.30440       -1.54920        2.76640
H         -5.61390       -2.02390        2.47240
H         -7.93820       -2.40310        1.87910
H         -7.33860       -0.51570       -1.84660
C         -9.25680       -1.76210       -0.33310
C         -9.69640       -2.94390       -0.88300
C        -11.02000       -3.19640       -1.13900
C        -11.99680       -2.23090       -0.84020
C        -13.32330       -2.48100       -1.09330
C        -14.29090       -1.51530       -0.79000
C        -13.86940       -0.32420       -0.23610
C        -14.82540        0.63240        0.05800
C        -14.35730        1.82890        0.60770
C        -13.02010        2.05140        0.84880
C        -12.06600        1.09570        0.55730
C        -10.72150        1.32320        0.80210
C         -9.76960        0.37060        0.50860
C        -10.21360       -0.81650       -0.03970
C        -11.55250       -1.05050       -0.28880
C        -12.50610       -0.09920        0.01010
H         -8.96960       -3.69940       -1.12210
H        -11.36910       -4.12580       -1.57270
H        -13.65200       -3.40880       -1.52380
H        -15.32360       -1.71900       -1.00500
H        -15.12130        2.57010        0.82960
H        -12.67690        2.99440        1.27810
H        -10.44250        2.26240        1.22680
H         -8.72750        0.53390        0.69500
N        -19.62190        2.88750       -2.57000
C        -19.07750        2.07170       -1.92530
C        -18.37690        1.09360       -1.10020
C        -16.99200        1.26560       -0.95390
C        -16.26240        0.42820       -0.11980
C        -16.95840       -0.54950        0.53480
C        -18.30220       -0.70980        0.38540
C        -19.08290        0.12990       -0.46330
H        -16.52480        2.05060       -1.50000
H        -16.37170       -1.20460        1.18660
H        -18.85350       -1.47920        0.89880
C        -20.51060       -0.10550       -0.50710
C        -21.31040        0.02900       -1.58980
N        -22.64120       -0.28980       -1.57940
C        -23.21970       -0.76090       -0.47170
C        -22.42070       -0.90520        0.63590
N        -21.12150       -0.59420        0.63010
H        -20.92550        0.36090       -2.53810
H        -22.87740       -1.28910        1.55770
H         23.49680       -1.07890       -0.25450
H        -24.26260       -1.02050       -0.44480
