
     RDKit          3D

130147  0  0  0  0  0  0  0  0999 V2000
   18.6996   -0.1251    2.1604 O   0  0  0  0  0  0  0  0  0  0  0  0
   18.7080   -1.0413    0.9666 S   0  0  0  0  0  0  0  0  0  0  0  0
   18.4394   -2.4723    1.3481 O   0  0  0  0  0  0  0  0  0  0  0  0
   20.1638   -0.8490    0.0252 C   0  0  0  0  0  0  0  0  0  0  0  0
   21.4669   -1.0994    0.3624 C   0  0  0  0  0  0  0  0  0  0  0  0
   22.4854   -0.8652   -0.5589 C   0  0  0  0  0  0  0  0  0  0  0  0
   22.1111   -0.3836   -1.7833 C   0  0  0  0  0  0  0  0  0  0  0  0
   20.8017   -0.1364   -2.1104 C   0  0  0  0  0  0  0  0  0  0  0  0
   19.7591   -0.3668   -1.1941 C   0  0  0  0  0  0  0  0  0  0  0  0
   18.3549   -0.1906   -1.3547 C   0  0  0  0  0  0  0  0  0  0  0  0
   17.6377    0.2558   -2.4877 C   0  0  0  0  0  0  0  0  0  0  0  0
   16.2633    0.3240   -2.4432 C   0  0  0  0  0  0  0  0  0  0  0  0
   15.4988   -0.0164   -1.3513 C   0  0  0  0  0  0  0  0  0  0  0  0
   16.2132   -0.4534   -0.2332 C   0  0  0  0  0  0  0  0  0  0  0  0
   17.5805   -0.5253   -0.2712 C   0  0  0  0  0  0  0  0  0  0  0  0
   21.7136   -1.4815    1.3470 H   0  0  0  0  0  0  0  0  0  0  0  0
   22.9274   -0.2057   -2.4992 H   0  0  0  0  0  0  0  0  0  0  0  0
   20.6039    0.2424   -3.0999 H   0  0  0  0  0  0  0  0  0  0  0  0
   18.1183    0.5496   -3.3931 H   0  0  0  0  0  0  0  0  0  0  0  0
   15.7272    0.6729   -3.3267 H   0  0  0  0  0  0  0  0  0  0  0  0
   15.6886   -0.7348    0.6587 H   0  0  0  0  0  0  0  0  0  0  0  0
   14.0463   -0.0136   -1.3841 C   0  0  0  0  0  0  0  0  0  0  0  0
   13.4290   -0.8842   -2.2985 C   0  0  0  0  0  0  0  0  0  0  0  0
   12.0645   -1.0199   -2.3762 C   0  0  0  0  0  0  0  0  0  0  0  0
   11.2740   -0.2765   -1.5289 C   0  0  0  0  0  0  0  0  0  0  0  0
    9.9097   -0.3950   -1.5731 C   0  0  0  0  0  0  0  0  0  0  0  0
    9.0679    0.3212   -0.7395 C   0  0  0  0  0  0  0  0  0  0  0  0
    9.6187    1.1844    0.1659 C   0  0  0  0  0  0  0  0  0  0  0  0
    8.8185    1.9416    1.0190 C   0  0  0  0  0  0  0  0  0  0  0  0
    9.3898    2.8158    1.9064 C   0  0  0  0  0  0  0  0  0  0  0  0
   10.7874    2.9292    1.9423 C   0  0  0  0  0  0  0  0  0  0  0  0
   11.5955    2.1828    1.1050 C   0  0  0  0  0  0  0  0  0  0  0  0
   12.9745    2.3183    1.1701 C   0  0  0  0  0  0  0  0  0  0  0  0
   13.8301    1.5865    0.3437 C   0  0  0  0  0  0  0  0  0  0  0  0
   13.2358    0.7175   -0.5521 C   0  0  0  0  0  0  0  0  0  0  0  0
   11.8425    0.5978   -0.6111 C   0  0  0  0  0  0  0  0  0  0  0  0
   11.0021    1.3104    0.2161 C   0  0  0  0  0  0  0  0  0  0  0  0
   14.0758   -1.4577   -2.9533 H   0  0  0  0  0  0  0  0  0  0  0  0
   11.5857   -1.7015   -3.0927 H   0  0  0  0  0  0  0  0  0  0  0  0
    9.4447   -1.0757   -2.2898 H   0  0  0  0  0  0  0  0  0  0  0  0
    8.0079    0.1774   -0.8448 H   0  0  0  0  0  0  0  0  0  0  0  0
    8.8383    3.4345    2.5946 H   0  0  0  0  0  0  0  0  0  0  0  0
   11.2244    3.6281    2.6512 H   0  0  0  0  0  0  0  0  0  0  0  0
   13.4026    3.0110    1.8789 H   0  0  0  0  0  0  0  0  0  0  0  0
   14.9009    1.7042    0.4028 H   0  0  0  0  0  0  0  0  0  0  0  0
    4.9693   -2.3129    2.1723 N   0  0  0  0  0  0  0  0  0  0  0  0
    5.2369   -1.2009    1.8865 C   0  0  0  0  0  0  0  0  0  0  0  0
    5.5997    0.1618    1.5057 C   0  0  0  0  0  0  0  0  0  0  0  0
    6.9482    0.4917    1.4727 C   0  0  0  0  0  0  0  0  0  0  0  0
    7.3773    1.7405    1.0451 C   0  0  0  0  0  0  0  0  0  0  0  0
    6.4350    2.6466    0.6539 C   0  0  0  0  0  0  0  0  0  0  0  0
    5.1105    2.3056    0.6933 C   0  0  0  0  0  0  0  0  0  0  0  0
    4.6408    1.0532    1.1211 C   0  0  0  0  0  0  0  0  0  0  0  0
    7.6491   -0.2836    1.8002 H   0  0  0  0  0  0  0  0  0  0  0  0
    6.7243    3.6218    0.3163 H   0  0  0  0  0  0  0  0  0  0  0  0
    4.3275    3.0196    0.3840 H   0  0  0  0  0  0  0  0  0  0  0  0
    3.2322    0.7348    1.0596 C   0  0  0  0  0  0  0  0  0  0  0  0
    2.5652    0.0559    2.0331 C   0  0  0  0  0  0  0  0  0  0  0  0
    1.2232   -0.1964    1.9493 N   0  0  0  0  0  0  0  0  0  0  0  0
    0.5006    0.2288    0.8770 C   0  0  0  0  0  0  0  0  0  0  0  0
    1.1590    0.9069   -0.0905 C   0  0  0  0  0  0  0  0  0  0  0  0
    2.4792    1.1612   -0.0180 N   0  0  0  0  0  0  0  0  0  0  0  0
    3.0942   -0.2656    2.9400 H   0  0  0  0  0  0  0  0  0  0  0  0
    0.5704    1.2440   -0.9436 H   0  0  0  0  0  0  0  0  0  0  0  0
   -4.5762    1.5602   -1.7163 O   0  0  0  0  0  0  0  0  0  0  0  0
   -4.3425    0.1201   -1.4532 S   0  0  0  0  0  0  0  0  0  0  0  0
   -4.0315   -0.6558   -2.7088 O   0  0  0  0  0  0  0  0  0  0  0  0
   -3.0958   -0.1254   -0.2396 C   0  0  0  0  0  0  0  0  0  0  0  0
   -1.7409    0.2101   -0.2469 C   0  0  0  0  0  0  0  0  0  0  0  0
   -0.9346   -0.0813    0.8163 C   0  0  0  0  0  0  0  0  0  0  0  0
   -1.5419   -0.7177    1.8819 C   0  0  0  0  0  0  0  0  0  0  0  0
   -2.8616   -1.0507    1.9025 C   0  0  0  0  0  0  0  0  0  0  0  0
   -3.7011   -0.7549    0.8064 C   0  0  0  0  0  0  0  0  0  0  0  0
   -5.1104   -1.0432    0.6348 C   0  0  0  0  0  0  0  0  0  0  0  0
   -6.0125   -1.6912    1.5010 C   0  0  0  0  0  0  0  0  0  0  0  0
   -7.3003   -1.8961    1.1697 C   0  0  0  0  0  0  0  0  0  0  0  0
   -7.8510   -1.4940   -0.0364 C   0  0  0  0  0  0  0  0  0  0  0  0
   -6.9896   -0.8584   -0.8965 C   0  0  0  0  0  0  0  0  0  0  0  0
   -5.6433   -0.6421   -0.5567 C   0  0  0  0  0  0  0  0  0  0  0  0
   -1.3521    0.7017   -1.1121 H   0  0  0  0  0  0  0  0  0  0  0  0
   -0.9057   -0.9563    2.7530 H   0  0  0  0  0  0  0  0  0  0  0  0
   -3.3044   -1.5492    2.7664 H   0  0  0  0  0  0  0  0  0  0  0  0
   -5.6139   -2.0239    2.4724 H   0  0  0  0  0  0  0  0  0  0  0  0
   -7.9382   -2.4031    1.8791 H   0  0  0  0  0  0  0  0  0  0  0  0
   -7.3386   -0.5157   -1.8466 H   0  0  0  0  0  0  0  0  0  0  0  0
   -9.2568   -1.7621   -0.3331 C   0  0  0  0  0  0  0  0  0  0  0  0
   -9.6964   -2.9439   -0.8830 C   0  0  0  0  0  0  0  0  0  0  0  0
  -11.0200   -3.1964   -1.1390 C   0  0  0  0  0  0  0  0  0  0  0  0
  -11.9968   -2.2309   -0.8402 C   0  0  0  0  0  0  0  0  0  0  0  0
  -13.3233   -2.4810   -1.0933 C   0  0  0  0  0  0  0  0  0  0  0  0
  -14.2909   -1.5153   -0.7900 C   0  0  0  0  0  0  0  0  0  0  0  0
  -13.8694   -0.3242   -0.2361 C   0  0  0  0  0  0  0  0  0  0  0  0
  -14.8254    0.6324    0.0580 C   0  0  0  0  0  0  0  0  0  0  0  0
  -14.3573    1.8289    0.6077 C   0  0  0  0  0  0  0  0  0  0  0  0
  -13.0201    2.0514    0.8488 C   0  0  0  0  0  0  0  0  0  0  0  0
  -12.0660    1.0957    0.5573 C   0  0  0  0  0  0  0  0  0  0  0  0
  -10.7215    1.3232    0.8021 C   0  0  0  0  0  0  0  0  0  0  0  0
   -9.7696    0.3706    0.5086 C   0  0  0  0  0  0  0  0  0  0  0  0
  -10.2136   -0.8165   -0.0397 C   0  0  0  0  0  0  0  0  0  0  0  0
  -11.5525   -1.0505   -0.2888 C   0  0  0  0  0  0  0  0  0  0  0  0
  -12.5061   -0.0992    0.0101 C   0  0  0  0  0  0  0  0  0  0  0  0
   -8.9696   -3.6994   -1.1221 H   0  0  0  0  0  0  0  0  0  0  0  0
  -11.3691   -4.1258   -1.5727 H   0  0  0  0  0  0  0  0  0  0  0  0
  -13.6520   -3.4088   -1.5238 H   0  0  0  0  0  0  0  0  0  0  0  0
  -15.3236   -1.7190   -1.0050 H   0  0  0  0  0  0  0  0  0  0  0  0
  -15.1213    2.5701    0.8296 H   0  0  0  0  0  0  0  0  0  0  0  0
  -12.6769    2.9944    1.2781 H   0  0  0  0  0  0  0  0  0  0  0  0
  -10.4425    2.2624    1.2268 H   0  0  0  0  0  0  0  0  0  0  0  0
   -8.7275    0.5339    0.6950 H   0  0  0  0  0  0  0  0  0  0  0  0
  -19.6219    2.8875   -2.5700 N   0  0  0  0  0  0  0  0  0  0  0  0
  -19.0775    2.0717   -1.9253 C   0  0  0  0  0  0  0  0  0  0  0  0
  -18.3769    1.0936   -1.1002 C   0  0  0  0  0  0  0  0  0  0  0  0
  -16.9920    1.2656   -0.9539 C   0  0  0  0  0  0  0  0  0  0  0  0
  -16.2624    0.4282   -0.1198 C   0  0  0  0  0  0  0  0  0  0  0  0
  -16.9584   -0.5495    0.5348 C   0  0  0  0  0  0  0  0  0  0  0  0
  -18.3022   -0.7098    0.3854 C   0  0  0  0  0  0  0  0  0  0  0  0
  -19.0829    0.1299   -0.4633 C   0  0  0  0  0  0  0  0  0  0  0  0
  -16.5248    2.0506   -1.5000 H   0  0  0  0  0  0  0  0  0  0  0  0
  -16.3717   -1.2046    1.1866 H   0  0  0  0  0  0  0  0  0  0  0  0
  -18.8535   -1.4792    0.8988 H   0  0  0  0  0  0  0  0  0  0  0  0
  -20.5106   -0.1055   -0.5071 C   0  0  0  0  0  0  0  0  0  0  0  0
  -21.3104    0.0290   -1.5898 C   0  0  0  0  0  0  0  0  0  0  0  0
  -22.6412   -0.2898   -1.5794 N   0  0  0  0  0  0  0  0  0  0  0  0
  -23.2197   -0.7609   -0.4717 C   0  0  0  0  0  0  0  0  0  0  0  0
  -22.4207   -0.9052    0.6359 C   0  0  0  0  0  0  0  0  0  0  0  0
  -21.1215   -0.5942    0.6301 N   0  0  0  0  0  0  0  0  0  0  0  0
  -20.9255    0.3609   -2.5381 H   0  0  0  0  0  0  0  0  0  0  0  0
  -22.8774   -1.2891    1.5577 H   0  0  0  0  0  0  0  0  0  0  0  0
   23.4968   -1.0789   -0.2545 H   0  0  0  0  0  0  0  0  0  0  0  0
  -24.2626   -1.0205   -0.4448 H   0  0  0  0  0  0  0  0  0  0  0  0
  1  2  2  0
  2  3  2  0
  2  4  1  0
  4  5  2  0
  5  6  1  0
  6  7  2  0
  7  8  1  0
  8  9  2  0
  9 10  1  0
 10 11  2  0
 11 12  1  0
 12 13  2  0
 13 14  1  0
 14 15  2  0
 15  2  1  0
  9  4  1  0
 15 10  1  0
  5 16  1  0
  7 17  1  0
  8 18  1  0
 11 19  1  0
 12 20  1  0
 14 21  1  0
 22 23  2  0
 23 24  1  0
 24 25  2  0
 25 26  1  0
 26 27  2  0
 27 28  1  0
 28 29  2  0
 29 30  1  0
 30 31  2  0
 31 32  1  0
 32 33  2  0
 33 34  1  0
 34 35  2  0
 35 36  1  0
 36 37  2  0
 35 22  1  0
 36 25  1  0
 37 28  1  0
 37 32  1  0
 23 38  1  0
 24 39  1  0
 26 40  1  0
 27 41  1  0
 30 42  1  0
 31 43  1  0
 33 44  1  0
 34 45  1  0
 46 47  3  0
 47 48  1  0
 48 49  2  0
 49 50  1  0
 50 51  2  0
 51 52  1  0
 52 53  2  0
 53 48  1  0
 49 54  1  0
 51 55  1  0
 52 56  1  0
 57 58  2  0
 58 59  1  0
 59 60  2  0
 60 61  1  0
 61 62  2  0
 62 57  1  0
 58 63  1  0
 61 64  1  0
 65 66  2  0
 66 67  2  0
 66 68  1  0
 68 69  2  0
 69 70  1  0
 70 71  2  0
 71 72  1  0
 72 73  2  0
 73 74  1  0
 74 75  2  0
 75 76  1  0
 76 77  2  0
 77 78  1  0
 78 79  2  0
 79 66  1  0
 73 68  1  0
 79 74  1  0
 69 80  1  0
 71 81  1  0
 72 82  1  0
 75 83  1  0
 76 84  1  0
 78 85  1  0
 86 87  2  0
 87 88  1  0
 88 89  2  0
 89 90  1  0
 90 91  2  0
 91 92  1  0
 92 93  2  0
 93 94  1  0
 94 95  2  0
 95 96  1  0
 96 97  2  0
 97 98  1  0
 98 99  2  0
 99100  1  0
100101  2  0
 99 86  1  0
100 89  1  0
101 92  1  0
101 96  1  0
 87102  1  0
 88103  1  0
 90104  1  0
 91105  1  0
 94106  1  0
 95107  1  0
 97108  1  0
 98109  1  0
110111  3  0
111112  1  0
112113  2  0
113114  1  0
114115  2  0
115116  1  0
116117  2  0
117112  1  0
113118  1  0
115119  1  0
116120  1  0
121122  2  0
122123  1  0
123124  2  0
124125  1  0
125126  2  0
126121  1  0
122127  1  0
125128  1  0
 13 22  1  0
 29 50  1  0
 53 57  1  0
 60 70  1  0
 77 86  1  0
 93114  1  0
117121  1  0
  6129  1  0
124130  1  0
M  END
