
     RDKit          3D

156177  0  0  0  0  0  0  0  0999 V2000
  -23.5665   -3.1664   -3.4934 O   0  0  0  0  0  0  0  0  0  0  0  0
  -23.0775   -3.7636   -2.2219 S   0  0  0  0  0  0  0  0  0  0  0  0
  -22.2061   -4.9699   -2.4518 O   0  0  0  0  0  0  0  0  0  0  0  0
  -24.3503   -4.1282   -1.0796 C   0  0  0  0  0  0  0  0  0  0  0  0
  -25.4477   -5.0047   -1.1703 C   0  0  0  0  0  0  0  0  0  0  0  0
  -26.3172   -5.1092   -0.1143 C   0  0  0  0  0  0  0  0  0  0  0  0
  -26.1006   -4.3587    1.0082 C   0  0  0  0  0  0  0  0  0  0  0  0
  -25.0240   -3.5150    1.0617 C   0  0  0  0  0  0  0  0  0  0  0  0
  -24.0953   -3.3606    0.0164 C   0  0  0  0  0  0  0  0  0  0  0  0
  -22.9289   -2.5318   -0.0496 C   0  0  0  0  0  0  0  0  0  0  0  0
  -22.4067   -1.6648    0.9319 C   0  0  0  0  0  0  0  0  0  0  0  0
  -21.2468   -0.9709    0.6972 C   0  0  0  0  0  0  0  0  0  0  0  0
  -20.5285   -1.0695   -0.4809 C   0  0  0  0  0  0  0  0  0  0  0  0
  -21.0276   -1.9048   -1.4352 C   0  0  0  0  0  0  0  0  0  0  0  0
  -22.2096   -2.6175   -1.2106 C   0  0  0  0  0  0  0  0  0  0  0  0
  -25.5769   -5.5693   -2.0813 H   0  0  0  0  0  0  0  0  0  0  0  0
  -26.7834   -4.4362    1.8677 H   0  0  0  0  0  0  0  0  0  0  0  0
  -24.9051   -2.9542    1.9711 H   0  0  0  0  0  0  0  0  0  0  0  0
  -22.9230   -1.5416    1.8898 H   0  0  0  0  0  0  0  0  0  0  0  0
  -20.8220   -0.2918    1.4461 H   0  0  0  0  0  0  0  0  0  0  0  0
  -20.5437   -2.0380   -2.3754 H   0  0  0  0  0  0  0  0  0  0  0  0
  -17.4385    3.8072    1.1109 N   0  0  0  0  0  0  0  0  0  0  0  0
  -17.5787    2.7835    0.5436 C   0  0  0  0  0  0  0  0  0  0  0  0
  -17.7823    1.5180   -0.1177 C   0  0  0  0  0  0  0  0  0  0  0  0
  -19.0333    0.8888   -0.0160 C   0  0  0  0  0  0  0  0  0  0  0  0
  -19.2592   -0.3285   -0.6188 C   0  0  0  0  0  0  0  0  0  0  0  0
  -18.2050   -0.8911   -1.3224 C   0  0  0  0  0  0  0  0  0  0  0  0
  -16.9890   -0.2944   -1.4296 C   0  0  0  0  0  0  0  0  0  0  0  0
  -16.7490    0.9582   -0.8091 C   0  0  0  0  0  0  0  0  0  0  0  0
  -19.8157    1.3711    0.5265 H   0  0  0  0  0  0  0  0  0  0  0  0
  -18.4063   -1.8604   -1.7906 H   0  0  0  0  0  0  0  0  0  0  0  0
  -16.1681   -0.7412   -1.9748 H   0  0  0  0  0  0  0  0  0  0  0  0
  -11.3981   -0.9402   -1.6702 O   0  0  0  0  0  0  0  0  0  0  0  0
  -11.5880    0.0533   -0.5570 S   0  0  0  0  0  0  0  0  0  0  0  0
  -11.4869   -0.5807    0.7882 O   0  0  0  0  0  0  0  0  0  0  0  0
  -13.0490    0.9758   -0.7483 C   0  0  0  0  0  0  0  0  0  0  0  0
  -14.3614    0.6020   -0.7028 C   0  0  0  0  0  0  0  0  0  0  0  0
  -15.4163    1.5190   -0.8996 C   0  0  0  0  0  0  0  0  0  0  0  0
  -15.0298    2.7969   -1.1371 C   0  0  0  0  0  0  0  0  0  0  0  0
  -13.7082    3.2090   -1.1874 C   0  0  0  0  0  0  0  0  0  0  0  0
  -12.6725    2.2636   -0.9848 C   0  0  0  0  0  0  0  0  0  0  0  0
  -11.2421    2.4991   -0.9846 C   0  0  0  0  0  0  0  0  0  0  0  0
  -10.5335    3.6989   -1.1681 C   0  0  0  0  0  0  0  0  0  0  0  0
   -9.1704    3.7521   -1.1103 C   0  0  0  0  0  0  0  0  0  0  0  0
   -8.4408    2.6266   -0.8713 C   0  0  0  0  0  0  0  0  0  0  0  0
   -9.0875    1.4419   -0.6878 C   0  0  0  0  0  0  0  0  0  0  0  0
  -10.4697    1.3860   -0.7458 C   0  0  0  0  0  0  0  0  0  0  0  0
  -14.5941   -0.4402   -0.5150 H   0  0  0  0  0  0  0  0  0  0  0  0
  -15.7847    3.5525   -1.3105 H   0  0  0  0  0  0  0  0  0  0  0  0
  -13.5178    4.2459   -1.3855 H   0  0  0  0  0  0  0  0  0  0  0  0
  -11.0634    4.6453   -1.3711 H   0  0  0  0  0  0  0  0  0  0  0  0
   -8.6192    4.7005   -1.2603 H   0  0  0  0  0  0  0  0  0  0  0  0
   -8.5603    0.5075   -0.4891 H   0  0  0  0  0  0  0  0  0  0  0  0
   -6.9706    2.6430   -0.8653 C   0  0  0  0  0  0  0  0  0  0  0  0
   -6.3093    3.0659   -2.0476 C   0  0  0  0  0  0  0  0  0  0  0  0
   -4.9444    3.0285   -2.0760 C   0  0  0  0  0  0  0  0  0  0  0  0
   -4.1673    2.6031   -1.0088 C   0  0  0  0  0  0  0  0  0  0  0  0
   -2.8016    2.5889   -1.0871 C   0  0  0  0  0  0  0  0  0  0  0  0
   -2.0304    2.1586    0.0000 C   0  0  0  0  0  0  0  0  0  0  0  0
   -2.6308    1.7397    1.1686 C   0  0  0  0  0  0  0  0  0  0  0  0
   -1.8663    1.3254    2.2723 C   0  0  0  0  0  0  0  0  0  0  0  0
   -2.5078    0.9506    3.3932 C   0  0  0  0  0  0  0  0  0  0  0  0
   -3.8914    0.9630    3.4837 C   0  0  0  0  0  0  0  0  0  0  0  0
   -4.6506    1.3745    2.3859 C   0  0  0  0  0  0  0  0  0  0  0  0
   -6.0147    1.4143    2.4294 C   0  0  0  0  0  0  0  0  0  0  0  0
   -6.7990    1.8288    1.3604 C   0  0  0  0  0  0  0  0  0  0  0  0
   -6.1742    2.2309    0.1662 C   0  0  0  0  0  0  0  0  0  0  0  0
   -4.8047    2.1925    0.1471 C   0  0  0  0  0  0  0  0  0  0  0  0
   -4.0178    1.7659    1.2197 C   0  0  0  0  0  0  0  0  0  0  0  0
   -6.9364    3.3910   -2.8590 H   0  0  0  0  0  0  0  0  0  0  0  0
   -4.4115    3.3456   -2.9788 H   0  0  0  0  0  0  0  0  0  0  0  0
   -2.3021    2.9166   -1.9982 H   0  0  0  0  0  0  0  0  0  0  0  0
   -0.9642    2.1730   -0.0693 H   0  0  0  0  0  0  0  0  0  0  0  0
   -1.9391    0.6192    4.2764 H   0  0  0  0  0  0  0  0  0  0  0  0
   -4.4318    0.6622    4.3757 H   0  0  0  0  0  0  0  0  0  0  0  0
   -6.5134    1.0947    3.3421 H   0  0  0  0  0  0  0  0  0  0  0  0
   -7.8517    1.8681    1.4078 H   0  0  0  0  0  0  0  0  0  0  0  0
    2.2293   -0.0740   -1.6004 O   0  0  0  0  0  0  0  0  0  0  0  0
    2.5677   -0.3943   -0.1738 S   0  0  0  0  0  0  0  0  0  0  0  0
    2.5481   -1.8621    0.1005 O   0  0  0  0  0  0  0  0  0  0  0  0
    1.5665    0.4912    0.9439 C   0  0  0  0  0  0  0  0  0  0  0  0
    0.2164    0.4918    1.1635 C   0  0  0  0  0  0  0  0  0  0  0  0
   -0.3972    1.2900    2.1041 C   0  0  0  0  0  0  0  0  0  0  0  0
    0.4356    2.1072    2.8335 C   0  0  0  0  0  0  0  0  0  0  0  0
    1.7910    2.1096    2.6171 C   0  0  0  0  0  0  0  0  0  0  0  0
    2.4016    1.3017    1.6644 C   0  0  0  0  0  0  0  0  0  0  0  0
    3.7969    1.2075    1.3058 C   0  0  0  0  0  0  0  0  0  0  0  0
    4.8866    1.8951    1.8559 C   0  0  0  0  0  0  0  0  0  0  0  0
    6.1678    1.6818    1.3973 C   0  0  0  0  0  0  0  0  0  0  0  0
    6.4661    0.7796    0.3697 C   0  0  0  0  0  0  0  0  0  0  0  0
    5.3911    0.1177   -0.1574 C   0  0  0  0  0  0  0  0  0  0  0  0
    4.0974    0.3330    0.3062 C   0  0  0  0  0  0  0  0  0  0  0  0
   -0.3905   -0.1883    0.5534 H   0  0  0  0  0  0  0  0  0  0  0  0
   -0.0272    2.7457    3.5843 H   0  0  0  0  0  0  0  0  0  0  0  0
    2.3665    2.7935    3.2439 H   0  0  0  0  0  0  0  0  0  0  0  0
    4.7434    2.6231    2.6679 H   0  0  0  0  0  0  0  0  0  0  0  0
    7.0143    2.2078    1.8200 H   0  0  0  0  0  0  0  0  0  0  0  0
    5.5298   -0.5854   -0.9536 H   0  0  0  0  0  0  0  0  0  0  0  0
   11.8669    3.3212   -0.0390 N   0  0  0  0  0  0  0  0  0  0  0  0
   11.0771    2.4698   -0.1188 C   0  0  0  0  0  0  0  0  0  0  0  0
   10.1025    1.4097   -0.2434 C   0  0  0  0  0  0  0  0  0  0  0  0
    8.7885    1.5852    0.0898 C   0  0  0  0  0  0  0  0  0  0  0  0
    7.8461    0.5583   -0.0325 C   0  0  0  0  0  0  0  0  0  0  0  0
    8.3133   -0.6426   -0.5111 C   0  0  0  0  0  0  0  0  0  0  0  0
    9.6458   -0.8248   -0.8507 C   0  0  0  0  0  0  0  0  0  0  0  0
   10.5676    0.1906   -0.7233 C   0  0  0  0  0  0  0  0  0  0  0  0
    8.4363    2.5416    0.4548 H   0  0  0  0  0  0  0  0  0  0  0  0
    7.5791   -1.4421   -0.6173 H   0  0  0  0  0  0  0  0  0  0  0  0
    9.9717   -1.7781   -1.2230 H   0  0  0  0  0  0  0  0  0  0  0  0
   15.4055   -1.1419    2.0210 O   0  0  0  0  0  0  0  0  0  0  0  0
   15.5645    0.0075    1.0735 S   0  0  0  0  0  0  0  0  0  0  0  0
   15.6414    1.3307    1.7435 O   0  0  0  0  0  0  0  0  0  0  0  0
   14.2252   -0.0605   -0.0919 C   0  0  0  0  0  0  0  0  0  0  0  0
   12.8760    0.1045    0.0848 C   0  0  0  0  0  0  0  0  0  0  0  0
   11.9783   -0.0270   -0.9861 C   0  0  0  0  0  0  0  0  0  0  0  0
   12.5536   -0.3255   -2.1935 C   0  0  0  0  0  0  0  0  0  0  0  0
   13.9092   -0.4875   -2.3683 C   0  0  0  0  0  0  0  0  0  0  0  0
   14.8082   -0.3552   -1.2929 C   0  0  0  0  0  0  0  0  0  0  0  0
   16.2391   -0.4649   -1.2895 C   0  0  0  0  0  0  0  0  0  0  0  0
   17.1508   -0.7005   -2.3364 C   0  0  0  0  0  0  0  0  0  0  0  0
   18.4925   -0.7218   -2.1484 C   0  0  0  0  0  0  0  0  0  0  0  0
   19.0665   -0.5179   -0.9252 C   0  0  0  0  0  0  0  0  0  0  0  0
   18.1939   -0.2866    0.1207 C   0  0  0  0  0  0  0  0  0  0  0  0
   16.8377   -0.2634   -0.0749 C   0  0  0  0  0  0  0  0  0  0  0  0
   12.4725    0.3461    1.0641 H   0  0  0  0  0  0  0  0  0  0  0  0
   11.8615   -0.4426   -3.0433 H   0  0  0  0  0  0  0  0  0  0  0  0
   14.3035   -0.7253   -3.3666 H   0  0  0  0  0  0  0  0  0  0  0  0
   16.7554   -0.8756   -3.3405 H   0  0  0  0  0  0  0  0  0  0  0  0
   19.1544   -0.8954   -3.0077 H   0  0  0  0  0  0  0  0  0  0  0  0
   18.6473   -0.1251    1.1043 H   0  0  0  0  0  0  0  0  0  0  0  0
   20.5168   -0.4616   -0.6840 C   0  0  0  0  0  0  0  0  0  0  0  0
   21.1936    0.7228   -0.9521 C   0  0  0  0  0  0  0  0  0  0  0  0
   22.5396    0.8495   -0.7144 C   0  0  0  0  0  0  0  0  0  0  0  0
   23.2930   -0.1869   -0.1977 C   0  0  0  0  0  0  0  0  0  0  0  0
   24.6403   -0.0324    0.0303 C   0  0  0  0  0  0  0  0  0  0  0  0
   25.3988   -1.0983    0.5552 C   0  0  0  0  0  0  0  0  0  0  0  0
   24.7386   -2.2835    0.8256 C   0  0  0  0  0  0  0  0  0  0  0  0
   25.4726   -3.3395    1.3395 C   0  0  0  0  0  0  0  0  0  0  0  0
   24.8078   -4.5395    1.6100 C   0  0  0  0  0  0  0  0  0  0  0  0
   23.4490   -4.6568    1.3685 C   0  0  0  0  0  0  0  0  0  0  0  0
   22.7457   -3.5951    0.8603 C   0  0  0  0  0  0  0  0  0  0  0  0
   21.3795   -3.7182    0.6141 C   0  0  0  0  0  0  0  0  0  0  0  0
   20.6053   -2.6998    0.1033 C   0  0  0  0  0  0  0  0  0  0  0  0
   21.2644   -1.5013   -0.1692 C   0  0  0  0  0  0  0  0  0  0  0  0
   22.6196   -1.3767    0.0710 C   0  0  0  0  0  0  0  0  0  0  0  0
   23.3894   -2.3944    0.5821 C   0  0  0  0  0  0  0  0  0  0  0  0
   20.6385    1.5696   -1.3568 H   0  0  0  0  0  0  0  0  0  0  0  0
   23.0554    1.7869   -0.9336 H   0  0  0  0  0  0  0  0  0  0  0  0
   25.1700    0.8916   -0.1788 H   0  0  0  0  0  0  0  0  0  0  0  0
   26.4513   -0.9519    0.7316 H   0  0  0  0  0  0  0  0  0  0  0  0
   25.3601   -5.3632    2.0018 H   0  0  0  0  0  0  0  0  0  0  0  0
   22.9810   -5.6083    1.6007 H   0  0  0  0  0  0  0  0  0  0  0  0
   20.8980   -4.6771    0.8465 H   0  0  0  0  0  0  0  0  0  0  0  0
   19.5448   -2.8074   -0.0925 H   0  0  0  0  0  0  0  0  0  0  0  0
  -27.1732   -5.7774   -0.1358 H   0  0  0  0  0  0  0  0  0  0  0  0
   26.5242   -3.2868    1.5465 H   0  0  0  0  0  0  0  0  0  0  0  0
  1  2  2  0
  2  3  2  0
  2  4  1  0
  4  5  2  0
  5  6  1  0
  6  7  2  0
  7  8  1  0
  8  9  2  0
  9 10  1  0
 10 11  2  0
 11 12  1  0
 12 13  2  0
 13 14  1  0
 14 15  2  0
 15  2  1  0
  9  4  1  0
 15 10  1  0
  5 16  1  0
  7 17  1  0
  8 18  1  0
 11 19  1  0
 12 20  1  0
 14 21  1  0
 22 23  3  0
 23 24  1  0
 24 25  2  0
 25 26  1  0
 26 27  2  0
 27 28  1  0
 28 29  2  0
 29 24  1  0
 25 30  1  0
 27 31  1  0
 28 32  1  0
 33 34  2  0
 34 35  2  0
 34 36  1  0
 36 37  2  0
 37 38  1  0
 38 39  2  0
 39 40  1  0
 40 41  2  0
 41 42  1  0
 42 43  2  0
 43 44  1  0
 44 45  2  0
 45 46  1  0
 46 47  2  0
 47 34  1  0
 41 36  1  0
 47 42  1  0
 37 48  1  0
 39 49  1  0
 40 50  1  0
 43 51  1  0
 44 52  1  0
 46 53  1  0
 54 55  2  0
 55 56  1  0
 56 57  2  0
 57 58  1  0
 58 59  2  0
 59 60  1  0
 60 61  2  0
 61 62  1  0
 62 63  2  0
 63 64  1  0
 64 65  2  0
 65 66  1  0
 66 67  2  0
 67 68  1  0
 68 69  2  0
 67 54  1  0
 68 57  1  0
 69 60  1  0
 69 64  1  0
 55 70  1  0
 56 71  1  0
 58 72  1  0
 59 73  1  0
 62 74  1  0
 63 75  1  0
 65 76  1  0
 66 77  1  0
 78 79  2  0
 79 80  2  0
 79 81  1  0
 81 82  2  0
 82 83  1  0
 83 84  2  0
 84 85  1  0
 85 86  2  0
 86 87  1  0
 87 88  2  0
 88 89  1  0
 89 90  2  0
 90 91  1  0
 91 92  2  0
 92 79  1  0
 86 81  1  0
 92 87  1  0
 82 93  1  0
 84 94  1  0
 85 95  1  0
 88 96  1  0
 89 97  1  0
 91 98  1  0
 99100  3  0
100101  1  0
101102  2  0
102103  1  0
103104  2  0
104105  1  0
105106  2  0
106101  1  0
102107  1  0
104108  1  0
105109  1  0
110111  2  0
111112  2  0
111113  1  0
113114  2  0
114115  1  0
115116  2  0
116117  1  0
117118  2  0
118119  1  0
119120  2  0
120121  1  0
121122  2  0
122123  1  0
123124  2  0
124111  1  0
118113  1  0
124119  1  0
114125  1  0
116126  1  0
117127  1  0
120128  1  0
121129  1  0
123130  1  0
131132  2  0
132133  1  0
133134  2  0
134135  1  0
135136  2  0
136137  1  0
137138  2  0
138139  1  0
139140  2  0
140141  1  0
141142  2  0
142143  1  0
143144  2  0
144145  1  0
145146  2  0
144131  1  0
145134  1  0
146137  1  0
146141  1  0
132147  1  0
133148  1  0
135149  1  0
136150  1  0
139151  1  0
140152  1  0
142153  1  0
143154  1  0
 13 26  1  0
 29 38  1  0
 45 54  1  0
 61 83  1  0
 90103  1  0
106115  1  0
122131  1  0
  6155  1  0
138156  1  0
M  END
