156

O        -23.56650       -3.16640       -3.49340
S        -23.07750       -3.76360       -2.22190
O        -22.20610       -4.96990       -2.45180
C        -24.35030       -4.12820       -1.07960
C        -25.44770       -5.00470       -1.17030
C        -26.31720       -5.10920       -0.11430
C        -26.10060       -4.35870        1.00820
C        -25.02400       -3.51500        1.06170
C        -24.09530       -3.36060        0.01640
C        -22.92890       -2.53180       -0.04960
C        -22.40670       -1.66480        0.93190
C        -21.24680       -0.97090        0.69720
C        -20.52850       -1.06950       -0.48090
C        -21.02760       -1.90480       -1.43520
C        -22.20960       -2.61750       -1.21060
H        -25.57690       -5.56930       -2.08130
H        -26.78340       -4.43620        1.86770
H        -24.90510       -2.95420        1.97110
H        -22.92300       -1.54160        1.88980
H        -20.82200       -0.29180        1.44610
H        -20.54370       -2.03800       -2.37540
N        -17.43850        3.80720        1.11090
C        -17.57870        2.78350        0.54360
C        -17.78230        1.51800       -0.11770
C        -19.03330        0.88880       -0.01600
C        -19.25920       -0.32850       -0.61880
C        -18.20500       -0.89110       -1.32240
C        -16.98900       -0.29440       -1.42960
C        -16.74900        0.95820       -0.80910
H        -19.81570        1.37110        0.52650
H        -18.40630       -1.86040       -1.79060
H        -16.16810       -0.74120       -1.97480
O        -11.39810       -0.94020       -1.67020
S        -11.58800        0.05330       -0.55700
O        -11.48690       -0.58070        0.78820
C        -13.04900        0.97580       -0.74830
C        -14.36140        0.60200       -0.70280
C        -15.41630        1.51900       -0.89960
C        -15.02980        2.79690       -1.13710
C        -13.70820        3.20900       -1.18740
C        -12.67250        2.26360       -0.98480
C        -11.24210        2.49910       -0.98460
C        -10.53350        3.69890       -1.16810
C         -9.17040        3.75210       -1.11030
C         -8.44080        2.62660       -0.87130
C         -9.08750        1.44190       -0.68780
C        -10.46970        1.38600       -0.74580
H        -14.59410       -0.44020       -0.51500
H        -15.78470        3.55250       -1.31050
H        -13.51780        4.24590       -1.38550
H        -11.06340        4.64530       -1.37110
H         -8.61920        4.70050       -1.26030
H         -8.56030        0.50750       -0.48910
C         -6.97060        2.64300       -0.86530
C         -6.30930        3.06590       -2.04760
C         -4.94440        3.02850       -2.07600
C         -4.16730        2.60310       -1.00880
C         -2.80160        2.58890       -1.08710
C         -2.03040        2.15860        0.00000
C         -2.63080        1.73970        1.16860
C         -1.86630        1.32540        2.27230
C         -2.50780        0.95060        3.39320
C         -3.89140        0.96300        3.48370
C         -4.65060        1.37450        2.38590
C         -6.01470        1.41430        2.42940
C         -6.79900        1.82880        1.36040
C         -6.17420        2.23090        0.16620
C         -4.80470        2.19250        0.14710
C         -4.01780        1.76590        1.21970
H         -6.93640        3.39100       -2.85900
H         -4.41150        3.34560       -2.97880
H         -2.30210        2.91660       -1.99820
H         -0.96420        2.17300       -0.06930
H         -1.93910        0.61920        4.27640
H         -4.43180        0.66220        4.37570
H         -6.51340        1.09470        3.34210
H         -7.85170        1.86810        1.40780
O          2.22930       -0.07400       -1.60040
S          2.56770       -0.39430       -0.17380
O          2.54810       -1.86210        0.10050
C          1.56650        0.49120        0.94390
C          0.21640        0.49180        1.16350
C         -0.39720        1.29000        2.10410
C          0.43560        2.10720        2.83350
C          1.79100        2.10960        2.61710
C          2.40160        1.30170        1.66440
C          3.79690        1.20750        1.30580
C          4.88660        1.89510        1.85590
C          6.16780        1.68180        1.39730
C          6.46610        0.77960        0.36970
C          5.39110        0.11770       -0.15740
C          4.09740        0.33300        0.30620
H         -0.39050       -0.18830        0.55340
H         -0.02720        2.74570        3.58430
H          2.36650        2.79350        3.24390
H          4.74340        2.62310        2.66790
H          7.01430        2.20780        1.82000
H          5.52980       -0.58540       -0.95360
N         11.86690        3.32120       -0.03900
C         11.07710        2.46980       -0.11880
C         10.10250        1.40970       -0.24340
C          8.78850        1.58520        0.08980
C          7.84610        0.55830       -0.03250
C          8.31330       -0.64260       -0.51110
C          9.64580       -0.82480       -0.85070
C         10.56760        0.19060       -0.72330
H          8.43630        2.54160        0.45480
H          7.57910       -1.44210       -0.61730
H          9.97170       -1.77810       -1.22300
O         15.40550       -1.14190        2.02100
S         15.56450        0.00750        1.07350
O         15.64140        1.33070        1.74350
C         14.22520       -0.06050       -0.09190
C         12.87600        0.10450        0.08480
C         11.97830       -0.02700       -0.98610
C         12.55360       -0.32550       -2.19350
C         13.90920       -0.48750       -2.36830
C         14.80820       -0.35520       -1.29290
C         16.23910       -0.46490       -1.28950
C         17.15080       -0.70050       -2.33640
C         18.49250       -0.72180       -2.14840
C         19.06650       -0.51790       -0.92520
C         18.19390       -0.28660        0.12070
C         16.83770       -0.26340       -0.07490
H         12.47250        0.34610        1.06410
H         11.86150       -0.44260       -3.04330
H         14.30350       -0.72530       -3.36660
H         16.75540       -0.87560       -3.34050
H         19.15440       -0.89540       -3.00770
H         18.64730       -0.12510        1.10430
C         20.51680       -0.46160       -0.68400
C         21.19360        0.72280       -0.95210
C         22.53960        0.84950       -0.71440
C         23.29300       -0.18690       -0.19770
C         24.64030       -0.03240        0.03030
C         25.39880       -1.09830        0.55520
C         24.73860       -2.28350        0.82560
C         25.47260       -3.33950        1.33950
C         24.80780       -4.53950        1.61000
C         23.44900       -4.65680        1.36850
C         22.74570       -3.59510        0.86030
C         21.37950       -3.71820        0.61410
C         20.60530       -2.69980        0.10330
C         21.26440       -1.50130       -0.16920
C         22.61960       -1.37670        0.07100
C         23.38940       -2.39440        0.58210
H         20.63850        1.56960       -1.35680
H         23.05540        1.78690       -0.93360
H         25.17000        0.89160       -0.17880
H         26.45130       -0.95190        0.73160
H         25.36010       -5.36320        2.00180
H         22.98100       -5.60830        1.60070
H         20.89800       -4.67710        0.84650
H         19.54480       -2.80740       -0.09250
H        -27.17320       -5.77740       -0.13580
H         26.52420       -3.28680        1.54650
