156

O        -22.02040        0.13950        2.10980
S        -21.46470        1.53000        2.17290
O        -21.32360        2.04430        3.58170
C        -22.35700        2.64820        1.16550
C        -23.67160        3.07470        1.23520
C        -24.14250        3.97730        0.31580
C        -23.26350        4.42410       -0.65320
C        -21.98070        3.99550       -0.70550
C        -21.44660        3.07200        0.21310
C        -20.15010        2.52550        0.30940
C        -19.01230        2.74730       -0.50990
C        -17.82390        2.12480       -0.28850
C        -17.65220        1.24340        0.74760
C        -18.73230        1.00630        1.56400
C        -19.92540        1.63490        1.33080
H        -24.33680        2.70780        2.01840
H        -23.62700        5.12610       -1.37770
H        -21.35830        4.40110       -1.49780
H        -19.06710        3.43380       -1.34520
H        -16.99370        2.34360       -0.97140
H        -18.64600        0.32580        2.40250
C        -16.37490        0.59970        0.96310
C        -15.70660        0.94130        2.14420
C        -14.47190        0.42040        2.36530
C        -13.89670       -0.42240        1.44590
C        -12.63760       -0.94420        1.65110
C        -12.00590       -1.79630        0.74200
C        -12.61600       -2.15980       -0.41590
C        -11.99780       -2.98790       -1.32510
C        -12.68820       -3.29630       -2.47410
C        -13.96750       -2.78950       -2.71560
C        -14.56170       -1.96530       -1.79920
C        -15.81710       -1.43560       -2.01230
C        -16.42820       -0.58770       -1.10050
C        -15.77810       -0.25260        0.05360
C        -14.52080       -0.79050        0.26510
C        -13.89830       -1.63360       -0.63530
H        -16.21050        1.61450        2.82970
H        -13.92400        0.66160        3.25010
H        -12.12570       -0.65390        2.57770
H        -11.04330       -2.10490        1.03430
H        -12.29330       -3.93070       -3.21830
H        -14.52940       -3.01560       -3.60690
H        -16.33990       -1.71240       -2.94020
H        -17.40790       -0.20520       -1.29480
C        -10.59340       -3.43950       -1.19170
C         -9.85360       -3.54670       -2.34470
N         -8.50140       -3.77860       -2.34170
C         -7.90380       -3.89520       -1.17670
C         -8.64440       -3.79410       -0.01390
N         -9.95770       -3.57280       -0.03810
H        -10.35430       -3.44190       -3.30920
H         -8.16350       -3.90620        0.97640
C         -6.44990       -3.88270       -0.91810
C         -5.76490       -4.90940       -0.32100
C         -4.45690       -4.79070        0.09260
C         -3.83040       -3.55900       -0.12170
C         -2.52300       -3.36330        0.29790
C         -1.90630       -2.14910        0.11640
C         -2.50590       -1.07090       -0.46940
C         -1.83830        0.11860       -0.62150
C         -2.52740        1.16560       -1.23310
C         -3.82330        1.00250       -1.65820
C         -4.46140       -0.19810       -1.48810
C         -5.76750       -0.39430       -1.88330
C         -6.44300       -1.60710       -1.70770
C         -5.79160       -2.65770       -1.12340
C         -4.45920       -2.49010       -0.71620
C         -3.83310       -1.27160       -0.89420
H         -6.29920       -5.86520       -0.17410
H         -3.90510       -5.58270        0.56630
H         -2.02100       -4.19150        0.74950
H         -0.87660       -2.01540        0.45020
H         -2.00930        2.10140       -1.36800
H         -4.38800        1.81140       -2.13810
H         -6.29720        0.41040       -2.34920
H         -7.47490       -1.67660       -2.02380
O          2.98590        2.90060       -2.21120
S          3.17800        1.54140       -1.60680
O          3.55550        0.50870       -2.60020
C          1.77030        1.04740       -0.65630
C          0.48960        0.75920       -1.07610
C         -0.47760        0.38260       -0.16440
C         -0.08640        0.31300        1.17070
C          1.19680        0.60710        1.55590
C          2.18190        0.98870        0.63810
C          3.59250        1.30220        0.85360
C          4.31510        1.29510        2.07090
C          5.65130        1.58830        2.06070
C          6.37040        1.89750        0.93670
C          5.66100        1.90470       -0.24870
C          4.29450        1.60600       -0.25840
H          0.23800        0.81860       -2.11610
H         -0.86870        0.02570        1.86440
H          1.44920        0.54760        2.61760
H          3.81850        1.06130        2.99010
H          6.22450        1.59380        3.00570
H          6.14510        2.14110       -1.17700
C          7.81350        2.16520        0.94060
C          8.38350        3.39540        1.08520
C          9.72980        3.59540        1.05510
C         10.55910        2.50060        0.87010
C         11.92870        2.65930        0.82790
C         12.70230        1.55760        0.63810
C         12.21800        0.28590        0.48540
C         13.05500       -0.78460        0.27570
C         12.45370       -2.02120        0.10920
C         11.08210       -2.18300        0.15090
C         10.25330       -1.08750        0.36660
C          8.87960       -1.29530        0.39720
C          8.07090       -0.18470        0.59690
C          8.64570        1.05820        0.75480
C         10.01160        1.23760        0.72080
C         10.82790        0.15080        0.53090
H          7.72980        4.23890        1.22080
H         10.14080        4.56710        1.17380
H         12.32840        3.66700        0.94620
H         13.78800        1.67880        0.59720
H         13.04910       -2.89660       -0.06170
H         10.60780       -3.14950        0.01800
H          8.44430       -2.27690        0.28300
H          6.98990       -0.27050        0.62920
C         14.52000       -0.64470        0.20200
C         15.15340       -0.46690        1.42620
N         16.47790       -0.40530        1.53480
C         17.22780       -0.51700        0.41150
C         16.60550       -0.69310       -0.80290
N         15.23820       -0.75470       -0.90470
H         14.58310       -0.36590        2.35770
H         17.16650       -0.82240       -1.71500
C         18.66720       -0.59150        0.56320
C         19.13850       -1.45360        1.57520
C         20.47870       -1.60760        1.81340
C         21.42120       -0.93230        1.08130
C         22.76950       -1.11400        1.34920
C         23.73330       -0.44480        0.63130
C         23.31150        0.41820       -0.36710
C         24.26730        1.11360       -1.09040
C         23.83100        1.97260       -2.06440
C         22.47360        2.14820       -2.32600
C         21.55090        1.44820       -1.59330
C         20.20150        1.63680       -1.85730
C         19.22660        0.95240       -1.13730
C         19.61430        0.07950       -0.15820
C         20.98060       -0.09350        0.10270
C         21.96120        0.57720       -0.61250
H         18.38780       -1.98400        2.14550
H         20.80870       -2.28030        2.60200
H         23.02720       -1.82170        2.14890
H         24.78590       -0.58490        0.83480
H         24.53220        2.53880       -2.65800
H         22.15120        2.82470       -3.08650
H         19.86430        2.30970       -2.62570
H         18.18750        1.15610       -1.34760
H        -25.17810        4.34850        0.33600
H         25.31800        0.97690       -0.88430
