130

O         19.87090       -0.59250        2.18850
S         19.44750       -1.87360        1.57420
O         19.11560       -2.93140        2.59380
C         20.52760       -2.48320        0.35730
C         21.83680       -2.87820        0.45350
C         22.52960       -3.35300       -0.65080
C         21.82990       -3.40130       -1.82820
C         20.54300       -3.01150       -1.91030
C         19.82190       -2.52690       -0.80440
C         18.46690       -2.08060       -0.72400
C         17.48570       -2.00650       -1.73560
C         16.22060       -1.54800       -1.45440
C         15.83370       -1.14230       -0.20790
C         16.77280       -1.20500        0.79060
C         18.04570       -1.66620        0.50950
H         22.38760       -2.83260        1.40580
H         22.38680       -3.78210       -2.69780
H         20.06730       -3.08910       -2.90120
H         17.74540       -2.32370       -2.74590
H         15.46840       -1.49630       -2.25360
H         16.54780       -0.89610        1.81450
N         12.51580        2.47230        3.21470
C         12.68010        1.66380        2.41440
C         12.89380        0.66930        1.39520
C         14.18840        0.25790        1.06330
C         14.46440       -0.68240        0.10070
C         13.40070       -1.25190       -0.57840
C         12.11600       -0.87210       -0.27950
C         11.87010        0.08490        0.70560
H         15.00960        0.72350        1.61340
H         13.61580       -1.98670       -1.33170
H         11.28590       -1.29970       -0.79400
C         10.49200        0.37460        1.06860
C         10.11390        0.10350        2.40070
C          8.80450        0.25080        2.75970
C          7.83010        0.66390        1.84400
C          6.52030        0.77900        2.23050
C          5.52550        1.16990        1.34300
C          5.86350        1.45280        0.03680
C          4.89130        1.82880       -0.86170
C          5.27300        2.08970       -2.19540
C          6.57560        1.96760       -2.55750
C          7.52960        1.59290       -1.65190
C          8.86640        1.45280       -2.03360
C          9.84470        1.05680       -1.13740
C          9.52450        0.78510        0.17730
C          8.20040        0.93160        0.55220
C          7.21800        1.32370       -0.33850
H         10.88630       -0.20980        3.08090
H          8.53120        0.04040        3.77340
H          6.21900        0.56080        3.26800
H          4.50730        1.20280        1.67970
H          4.47620        2.38720       -2.86960
H          6.87590        2.17050       -3.58470
H          9.07430        1.67890       -3.07690
H         10.86540        0.97420       -1.45210
C          3.46310        1.90230       -0.55180
C          2.87410        2.55330        0.48670
N          1.52370        2.60060        0.61740
C          0.71730        2.00410       -0.27970
C          1.27410        1.34690       -1.33350
N          2.59420        1.31560       -1.43550
H          3.50530        3.08070        1.20860
H          0.61690        0.85970       -2.06460
O         -4.36240       -0.52120       -1.54960
S         -4.38690        0.99010       -1.57750
O         -4.41460        1.52770       -2.94970
C         -3.00740        1.62150       -0.65990
C         -1.64430        1.52390       -0.92300
C         -0.74660        2.08220       -0.05800
C         -1.24980        2.72450        1.04960
C         -2.59700        2.81170        1.29230
C         -3.54990        2.24940        0.42330
C         -4.97720        2.24690        0.51180
C         -5.79990        2.79450        1.49990
C         -7.15990        2.71060        1.46170
C         -7.78780        2.07730        0.43870
C         -6.97150        1.52600       -0.55710
C         -5.61280        1.61400       -0.51030
H         -1.33100        1.00550       -1.80910
H         -0.52040        3.17020        1.73940
H         -2.93130        3.34390        2.19920
H         -5.35800        3.33040        2.36420
H         -7.78550        3.15480        2.25910
H         -7.48840        1.01140       -1.38140
N        -12.50320        1.68440       -3.23550
C        -11.95060        1.70290       -2.21250
C        -11.24710        1.70880       -0.94120
C         -9.89700        1.91760       -0.86060
C         -9.23410        1.91090        0.36700
C        -10.00960        1.68860        1.48270
C        -11.39170        1.47350        1.40290
C        -12.04000        1.47750        0.19380
H         -9.30070        2.09420       -1.75230
H         -9.49700        1.68320        2.46110
H        -11.93370        1.30360        2.32170
C        -13.47310        1.29590        0.05080
C        -14.31380        2.33870       -0.31650
C        -15.66560        2.13150       -0.42740
C        -16.23960        0.90900       -0.18550
C        -17.56880        0.66670       -0.32710
C        -18.08580       -0.60280       -0.10790
C        -17.31310       -1.68200        0.25930
C        -17.85640       -2.93850        0.44530
C        -16.97470       -3.97290        0.79500
C        -15.63700       -3.72970        0.93870
C        -15.10190       -2.46280        0.74730
C        -13.74340       -2.25670        0.86840
C        -13.22770       -0.99750        0.64100
C        -14.06710        0.06700        0.29450
C        -15.43930       -0.14860        0.18140
C        -15.94040       -1.41880        0.40330
H        -13.90600        3.30950       -0.51240
H        -16.35310        2.94740       -0.71780
H        -18.23100        1.48670       -0.61420
H        -19.13360       -0.72960       -0.24840
H        -17.32490       -4.98840        0.97530
H        -14.92010       -4.51930        1.21180
H        -13.06090       -3.04160        1.13210
H        -12.18280       -0.79840        0.70690
C        -19.23960       -3.29520        0.23350
C        -19.54370       -4.63060       -0.08780
N        -20.82830       -4.93960       -0.32810
C        -21.82420       -4.05170       -0.27830
C        -21.53270       -2.72160        0.04100
N        -20.24590       -2.45210        0.27350
H        -18.78250       -5.39400       -0.15710
H        -22.31880       -1.99200        0.08620
H         23.54580       -3.66930       -0.61850
H        -22.85300       -4.30990       -0.47380
