130

C         19.85810        1.01680       -1.45710
C         19.29420        2.20720       -1.89940
C         17.91880        2.34930       -1.94030
C         17.07670        1.32770       -1.54910
C         15.68640        1.48650       -1.59480
C         14.84900        0.46960       -1.20330
C         15.36860       -0.73060       -0.75450
C         14.53150       -1.75500       -0.33340
C         15.11490       -2.90950        0.12450
C         16.48400       -3.08220        0.17560
C         17.29920       -2.03620       -0.25630
C         18.68860       -2.18920       -0.20680
C         19.53680       -1.18850       -0.60710
C         18.99910       -0.00440       -1.06470
C         17.62200        0.13940       -1.10680
C         16.74150       -0.86520       -0.71730
H         19.96600        3.01720       -2.20740
H         17.51000        3.29950       -2.28580
H         15.30200        2.42940       -1.94040
H         13.77630        0.60110       -1.23830
H         14.49300       -3.74690        0.47010
H         16.94220       -3.99540        0.53440
H         19.08800       -3.11120        0.15340
H         20.60400       -1.32330       -0.56580
C         13.09900       -1.61080       -0.51170
C         12.56310       -1.94980       -1.77070
C         11.21700       -1.88800       -1.95340
C         10.40110       -1.48640       -0.88460
C          9.05040       -1.41270       -1.05980
C          8.19960       -1.00750       -0.03490
C          8.65930       -0.65190        1.21560
C          7.80400       -0.25420        2.21860
C          8.39250        0.06260        3.45050
C          9.75240       -0.02060        3.62610
C         10.58380       -0.41750        2.60090
C         11.95730       -0.49430        2.77600
C         12.78670       -0.89120        1.74160
C         12.26830       -1.22410        0.50900
C         10.88670       -1.14810        0.35320
C         10.04990       -0.74310        1.36840
H         13.27480       -2.24180       -2.51620
H         10.78960       -2.14120       -2.88820
H          8.62740       -1.68160       -2.02480
H          7.13510       -1.02000       -0.20690
H          7.76320        0.37790        4.26830
H         10.22000        0.22970        4.58000
H         12.32540       -0.22640        3.75720
H         13.84810       -0.93840        1.90320
C          6.35200       -0.16960        2.08230
C          5.79380        0.54840        1.04280
N          4.47020        0.71660        0.88690
C          3.60650        0.17700        1.76690
C          4.13990       -0.53450        2.80690
N          5.48280       -0.69960        2.95360
H          6.50240        1.02670        0.33720
H          3.46900       -0.97490        3.52850
C          2.15580        0.32230        1.51700
C          1.78240        0.94880        0.35240
N          0.51310        1.06500        0.02730
C         -0.50590        0.57320        0.82370
C         -0.10620       -0.04080        1.97070
N          1.20280       -0.15200        2.29190
H          2.53010        1.36740       -0.33310
H         -0.85800       -0.49790        2.63350
C         -1.82910        0.64660        0.23980
C         -1.93130        0.41170       -1.15190
C         -3.11520        0.45500       -1.81720
C         -4.27970        0.74300       -1.10960
C         -5.48630        0.78680       -1.76680
C         -6.63620        1.07280       -1.06560
C         -6.61960        1.31920        0.28320
C         -7.77610        1.61040        0.99550
C         -7.72650        1.85920        2.37560
C         -6.52640        1.81810        3.03700
C         -5.40940        1.52730        2.29510
C         -4.20040        1.48690        2.94550
C         -3.01260        1.19490        2.25870
C         -2.97820        0.93000        0.90720
C         -4.21850        0.98140        0.24110
C         -5.39370        1.27230        0.94510
H         -1.01900        0.19070       -1.68290
H         -3.21890        0.27650       -2.88590
H         -5.48910        0.58960       -2.83650
H         -7.55910        1.08150       -1.61110
H         -8.66630        2.07600        2.85700
H         -6.47500        2.01150        4.11480
H         -4.16610        1.68830        4.01730
H         -2.08960        1.22970        2.80070
C         -9.03190        1.74280        0.29620
C         -9.18990        2.75630       -0.62350
C        -10.38960        2.98640       -1.29130
C        -11.43290        2.13310       -0.98260
C        -12.61830        2.31590       -1.62180
C        -13.73370        1.49210       -1.39190
C        -13.63970        0.46570       -0.50040
C        -14.70000       -0.33550       -0.25740
C        -14.51410       -1.36660        0.70890
C        -13.31840       -1.52270        1.33960
C        -12.23870       -0.69920        1.07880
C        -11.04890       -0.90940        1.73790
C         -9.97540       -0.08700        1.47010
C        -10.10450        0.93080        0.55850
C        -11.32490        1.11750       -0.08330
C        -12.40360        0.30470        0.14950
H         -8.36920        3.43370       -0.87310
H        -10.52060        3.77220       -2.00600
H        -12.71730        3.12750       -2.34220
H        -14.63410        1.75230       -1.91030
H        -15.36840       -2.01190        0.91150
H        -13.19120       -2.32160        2.08080
H        -10.92640       -1.69690        2.45600
H         -9.03660       -0.30240        2.01100
C        -16.02060       -0.28240       -0.86930
C        -16.25110       -0.11940       -2.17950
N        -17.52540       -0.23830       -2.66280
C        -18.57760       -0.51500       -1.89790
C        -18.32590       -0.68380       -0.53340
N        -17.09420       -0.56940       -0.04980
H        -15.49050        0.06560       -2.90500
H        -19.11500       -0.90670        0.15970
C        -19.93520       -0.67330       -2.38060
C        -20.21330       -0.56150       -3.73200
N        -21.47220       -0.73710       -4.17460
C        -22.50460       -1.02200       -3.36690
C        -22.21290       -1.12980       -2.01240
N        -20.95430       -0.95280       -1.58090
H        -19.40530       -0.32940       -4.42040
H        -23.00460       -1.35580       -1.31240
H         20.93690        0.91590       -1.43140
H        -23.51990       -1.17230       -3.68680
