98

N         16.88620        2.79930       -2.24560
C         17.29600        1.96920       -1.54670
C         17.81980        0.96250       -0.66840
C         19.20730        0.89280       -0.48910
C         19.73470       -0.04170        0.35030
C         18.89930       -0.91830        1.02250
C         17.54370       -0.84650        0.84320
C         16.99420        0.11030       -0.01720
H         19.85020        1.57360       -1.01160
H         19.33520       -1.65910        1.68930
H         16.90530       -1.52470        1.36340
O         12.09300       -0.87960        2.82470
S         12.05130        0.28460        1.88380
O         12.14150        1.60870        2.58830
C         13.34090        0.21680        0.68850
C         14.70440        0.20100        0.87870
C         15.53230        0.14950       -0.20270
C         14.95060        0.11540       -1.44840
C         13.59040        0.13160       -1.62730
C         12.71530        0.18430       -0.52600
C         11.28620        0.19300       -0.49080
C         10.38220        0.15120       -1.54750
C          9.03670        0.14850       -1.37550
C          8.49140        0.18750       -0.12470
C          9.37360        0.23010        0.94250
C         10.73240        0.23240        0.75640
H         15.13980        0.22860        1.87200
H         15.61680        0.06370       -2.30770
H         13.20220        0.10170       -2.64840
H         10.72660        0.11860       -2.59640
H          8.36740        0.11430       -2.24700
H          8.94600        0.26300        1.95400
C          7.04120        0.17020        0.01590
C          6.36720        0.17620        1.20570
N          5.00160        0.14120        1.21600
C          4.25710        0.10050        0.10560
C          4.95660        0.09570       -1.09150
N          6.29490        0.12980       -1.10940
H          6.93350        0.20840        2.11980
H          4.38080        0.06420       -2.00530
C          2.80400        0.04790        0.11990
C          2.02540        0.02260        1.24370
N          0.66720       -0.03730        1.16530
C          0.04320       -0.07380       -0.03910
C          0.83610       -0.04740       -1.15330
N          2.17280        0.01160       -1.07210
H          2.54190        0.05310        2.20970
H          0.38840       -0.07510       -2.12540
N         -4.71460       -0.23640       -3.65260
C         -4.17360       -0.25580       -2.60560
C         -3.49780       -0.25590       -1.33890
C         -2.09870       -0.17140       -1.29780
C         -1.41450       -0.14910       -0.10530
C         -2.13180       -0.21120        1.07280
C         -3.52070       -0.29540        1.01670
C         -4.22080       -0.31960       -0.17070
H         -1.57980       -0.12400       -2.24710
H         -1.58940       -0.19270        2.02600
H         -4.05520       -0.34290        1.94870
O         -9.13170        2.65830        0.65510
S         -9.16780        1.23760        1.14330
O         -9.09770        1.15860        2.63720
C         -7.88720        0.29380        0.38450
C         -6.49790        0.42130        0.44910
C         -5.67460       -0.43850       -0.23330
C         -6.29960       -1.41710       -0.97060
C         -7.66480       -1.54300       -1.03480
C         -8.51730       -0.66990       -0.34270
C         -9.95610       -0.64820       -0.30190
C        -10.86720       -1.47790       -0.93230
C        -12.22260       -1.35800       -0.82850
C        -12.73910       -0.32930       -0.03180
C        -11.84950        0.50800        0.60530
C        -10.49110        0.34230        0.46580
H         -6.09610        1.21780        1.05340
H         -5.68520       -2.13300       -1.51890
H         -8.09030       -2.35500       -1.64880
H        -10.50460       -2.31080       -1.57590
H        -12.91120       -2.04050       -1.34850
H        -12.25920        1.31110        1.22680
C        -14.18240       -0.20080        0.06930
C        -14.74980        0.76270        0.84620
N        -16.11040        0.88690        0.94450
C        -16.86970        0.02090        0.24540
C        -16.30130       -0.95930       -0.54460
N        -14.97240       -1.07330       -0.63580
H        -14.20360        1.48090        1.42610
H        -16.96540       -1.61870       -1.07810
C        -18.31090        0.13500        0.34090
C        -18.90590        1.09440        1.12650
N        -20.22990        1.24080        1.25340
C        -21.00950        0.39630        0.56930
C        -20.45640       -0.57070       -0.22230
N        -19.12460       -0.69740       -0.33320
H        -18.23440        1.77340        1.67680
H        -21.09530       -1.24600       -0.77070
H         20.80320       -0.15830        0.54180
H        -22.07870        0.51020        0.66870
