188

O        -23.58580        2.42270       -3.07680
S        -23.41290        1.45930       -1.94500
O        -22.79720        0.17100       -2.37510
C        -24.88880        1.21390       -1.04630
C        -26.05100        0.61160       -1.45130
C        -27.13090        0.52860       -0.56320
C        -26.95900        1.06140        0.67430
C        -25.79040        1.65430        1.04830
C        -24.67260        1.76010        0.18310
C        -23.35660        2.29450        0.41670
C        -22.83380        2.84460        1.60160
C        -21.52040        3.23570        1.67180
C        -20.64720        3.11790        0.60960
C        -21.15590        2.58560       -0.54710
C        -22.48800        2.18450       -0.62770
H        -26.18180        0.18940       -2.43170
H        -27.75330        1.03040        1.40930
H        -25.69270        2.06530        2.04040
H        -23.48160        2.95410        2.48280
H        -21.15990        3.65650        2.61490
H        -20.53780        2.44590       -1.44240
C        -19.21770        3.40680        0.72910
C        -18.58460        4.55940        0.38170
C        -17.20210        4.71450        0.52760
C        -16.41530        3.70160        1.03520
C        -15.04190        3.86330        1.14650
C        -14.31310        2.80400        1.62650
C        -14.89210        1.60420        1.99780
C        -14.11070        0.57620        2.44030
C        -14.76320       -0.61330        2.77750
C        -16.12240       -0.74320        2.66630
C        -16.90990        0.31080        2.20960
C        -18.27100        0.16970        2.06850
C        -19.05950        1.18720        1.58330
C        -18.41290        2.37080        1.24770
C        -17.04620        2.52150        1.39400
C        -16.26350        1.48300        1.87630
H        -19.17010        5.37020       -0.02420
H        -16.71720        5.63290        0.24400
H        -14.60280        4.79770        0.85610
H        -13.24220        2.87960        1.72390
H        -14.13230       -1.41510        3.13060
H        -16.62260       -1.66720        2.92730
H        -18.73990       -0.76600        2.33520
H        -20.11670        1.07950        1.45440
C        -12.65340        0.65210        2.54540
C        -11.95330        1.35760        3.47930
C        -10.54950        1.31430        3.55060
C         -9.88940        0.52340        2.62770
C         -8.49370        0.45980        2.61650
C         -7.78030       -0.28490        1.69410
C         -8.47890       -1.00840        0.72760
C         -7.80150       -1.71930       -0.21050
C         -8.54310       -2.41610       -1.18530
C         -9.91460       -2.37160       -1.18000
C        -10.55320       -1.61750       -0.18770
C        -11.91990       -1.58820       -0.26810
C        -12.63750       -0.82360        0.66810
C        -11.94300       -0.12840        1.63980
C        -10.56990       -0.19630        1.67600
C         -9.85250       -0.93130        0.76640
H        -12.45270        1.97300        4.19310
H        -10.00640        1.86610        4.28520
H         -7.95590        1.02290        3.38090
H         -6.69990       -0.32770        1.71640
H         -8.03270       -2.99600       -1.94190
H        -10.49720       -2.90980       -1.93650
H        -12.48690       -2.12410       -1.00310
H        -13.71080       -0.81080        0.55930
C         -6.36990       -1.72440       -0.42470
C         -5.77120       -0.47850       -0.61400
C         -4.45020       -0.36210       -0.95020
C         -3.70460       -1.54050       -1.10160
C         -2.38900       -1.41130       -1.45960
C         -1.59060       -2.53860       -1.65150
C         -2.13800       -3.78870       -1.47890
C         -1.32570       -4.92140       -1.67610
C         -1.88360       -6.14570       -1.48920
C         -3.21470       -6.27730       -1.12020
C         -3.99000       -5.15290       -0.93720
C         -5.33950       -5.23920       -0.57820
C         -6.12760       -4.10440       -0.40500
C         -5.59650       -2.85010       -0.58040
C         -4.26400       -2.78040       -0.92070
C         -3.45460       -3.87270       -1.11710
H         -6.34590        0.44570       -0.50060
H         -4.00340        0.60340       -1.09010
H         -1.93270       -0.43660       -1.60470
H         -0.56200       -2.43010       -1.90510
H         -1.27630       -7.03920       -1.62760
H         -3.69480       -7.23850       -0.97880
H         -5.71320       -6.24410       -0.43810
H         -7.13450       -4.24380       -0.12470
O          4.09850       -4.35300        0.21990
S          4.01170       -4.98020       -1.13700
O          4.32600       -6.44420       -1.09210
C          2.43470       -4.70370       -1.87020
C          1.16010       -5.00560       -1.39200
C          0.06300       -4.69970       -2.14140
C          0.29090       -4.09330       -3.38070
C          1.55140       -3.80290       -3.84040
C          2.68500       -4.10690       -3.07230
C          4.06420       -3.78250       -3.32650
C          4.62890       -3.08820       -4.40600
C          5.97140       -2.76470       -4.43800
C          6.82860       -3.09520       -3.43740
C          6.24510       -3.79960       -2.36410
C          4.92260       -4.11390       -2.34000
H          1.05510       -5.47310       -0.44390
H         -0.61570       -3.86300       -3.95410
H          1.65800       -3.33030       -4.82140
H          4.01440       -2.77810       -5.26400
H          6.38520       -2.22410       -5.30890
H          6.91460       -4.08510       -1.55750
C          8.25180       -2.80060       -3.37540
C          9.18580       -3.35900       -4.19050
C         10.53010       -3.13190       -3.97540
C         10.95500       -2.34130       -2.93410
C         12.31600       -2.13220       -2.70750
C         12.77210       -1.35060       -1.65560
C         11.85320       -0.76140       -0.80700
C         12.28440        0.02410        0.23390
C         11.32380        0.60070        1.03890
C          9.96650        0.40930        0.82540
C          9.57860       -0.39680       -0.23890
C          8.22880       -0.58820       -0.43640
C          7.77260       -1.39950       -1.49200
C          8.69230       -1.98840       -2.31930
C         10.02670       -1.75960       -2.09430
C         10.51710       -0.98750       -1.06080
H          8.82140       -3.97930       -4.99750
H         11.26590       -3.56730       -4.61490
H         13.04500       -2.59980       -3.37650
H         13.82310       -1.21810       -1.53730
H         11.62830        1.22730        1.86630
H          9.21980        0.85680        1.44320
H          7.47240       -0.13300        0.18390
H          6.72590       -1.51690       -1.62290
C         13.67900        0.19460        0.61280
C         14.39180       -0.97710        0.91650
C         15.68060       -0.99680        1.35520
C         16.31950        0.20690        1.50890
C         17.62410        0.17330        1.94380
C         18.28300        1.39760        2.08780
C         17.62700        2.58450        1.79740
C         18.32040        3.79640        1.93750
C         17.66760        4.96780        1.64500
C         16.34940        4.97800        1.21510
C         15.67550        3.78110        1.07440
C         14.36030        3.74690        0.63160
C         13.66850        2.54100        0.47070
C         14.32760        1.38340        0.76730
C         15.65170        1.38830        1.21670
C         16.32040        2.59570        1.36470
H         13.88950       -1.92590        0.78230
H         16.20740       -1.93010        1.59420
H         18.13270       -0.75090        2.16970
H         19.30590        1.41070        2.44780
H         18.16720        5.90280        1.74500
H         15.85490        5.91280        1.01700
H         13.84480        4.66700        0.40410
H         12.65560        2.54240        0.10690
C         19.69260        3.77520        2.32470
C         20.13120        4.02490        3.57760
C         21.49220        3.90310        3.90770
C         22.41310        3.52240        2.94700
C         23.73260        3.38320        3.28850
C         24.65290        2.97960        2.35680
C         24.21930        2.72550        1.08740
C         25.11480        2.31450        0.12070
C         24.75180        2.04140       -1.17820
C         23.41690        2.19090       -1.50210
C         22.49810        2.59760       -0.56310
C         21.15380        2.73340       -0.88900
C         20.24320        3.12570        0.06590
C         20.62000        3.39420        1.34910
C         21.96700        3.27160        1.67710
C         22.88690        2.86330        0.71980
H         19.47130        4.31860        4.37710
H         21.83500        4.11200        4.91720
H         24.10370        3.58010        4.30630
H         25.68310        2.85720        2.60420
H         25.45260        1.72420       -1.91950
H         23.03630        2.00120       -2.49260
H         20.86610        2.51400       -1.89870
H         19.19630        3.22110       -0.25370
H        -28.03930        0.06070       -0.85000
H         26.17010        2.19580        0.37920
