
     RDKit          3D

188217  0  0  0  0  0  0  0  0999 V2000
  -23.5858    2.4227   -3.0768 O   0  0  0  0  0  0  0  0  0  0  0  0
  -23.4129    1.4593   -1.9450 S   0  0  0  0  0  0  0  0  0  0  0  0
  -22.7972    0.1710   -2.3751 O   0  0  0  0  0  0  0  0  0  0  0  0
  -24.8888    1.2139   -1.0463 C   0  0  0  0  0  0  0  0  0  0  0  0
  -26.0510    0.6116   -1.4513 C   0  0  0  0  0  0  0  0  0  0  0  0
  -27.1309    0.5286   -0.5632 C   0  0  0  0  0  0  0  0  0  0  0  0
  -26.9590    1.0614    0.6743 C   0  0  0  0  0  0  0  0  0  0  0  0
  -25.7904    1.6543    1.0483 C   0  0  0  0  0  0  0  0  0  0  0  0
  -24.6726    1.7601    0.1831 C   0  0  0  0  0  0  0  0  0  0  0  0
  -23.3566    2.2945    0.4167 C   0  0  0  0  0  0  0  0  0  0  0  0
  -22.8338    2.8446    1.6016 C   0  0  0  0  0  0  0  0  0  0  0  0
  -21.5204    3.2357    1.6718 C   0  0  0  0  0  0  0  0  0  0  0  0
  -20.6472    3.1179    0.6096 C   0  0  0  0  0  0  0  0  0  0  0  0
  -21.1559    2.5856   -0.5471 C   0  0  0  0  0  0  0  0  0  0  0  0
  -22.4880    2.1845   -0.6277 C   0  0  0  0  0  0  0  0  0  0  0  0
  -26.1818    0.1894   -2.4317 H   0  0  0  0  0  0  0  0  0  0  0  0
  -27.7533    1.0304    1.4093 H   0  0  0  0  0  0  0  0  0  0  0  0
  -25.6927    2.0653    2.0404 H   0  0  0  0  0  0  0  0  0  0  0  0
  -23.4816    2.9541    2.4828 H   0  0  0  0  0  0  0  0  0  0  0  0
  -21.1599    3.6565    2.6149 H   0  0  0  0  0  0  0  0  0  0  0  0
  -20.5378    2.4459   -1.4424 H   0  0  0  0  0  0  0  0  0  0  0  0
  -19.2177    3.4068    0.7291 C   0  0  0  0  0  0  0  0  0  0  0  0
  -18.5846    4.5594    0.3817 C   0  0  0  0  0  0  0  0  0  0  0  0
  -17.2021    4.7145    0.5276 C   0  0  0  0  0  0  0  0  0  0  0  0
  -16.4153    3.7016    1.0352 C   0  0  0  0  0  0  0  0  0  0  0  0
  -15.0419    3.8633    1.1465 C   0  0  0  0  0  0  0  0  0  0  0  0
  -14.3131    2.8040    1.6265 C   0  0  0  0  0  0  0  0  0  0  0  0
  -14.8921    1.6042    1.9978 C   0  0  0  0  0  0  0  0  0  0  0  0
  -14.1107    0.5762    2.4403 C   0  0  0  0  0  0  0  0  0  0  0  0
  -14.7632   -0.6133    2.7775 C   0  0  0  0  0  0  0  0  0  0  0  0
  -16.1224   -0.7432    2.6663 C   0  0  0  0  0  0  0  0  0  0  0  0
  -16.9099    0.3108    2.2096 C   0  0  0  0  0  0  0  0  0  0  0  0
  -18.2710    0.1697    2.0685 C   0  0  0  0  0  0  0  0  0  0  0  0
  -19.0595    1.1872    1.5833 C   0  0  0  0  0  0  0  0  0  0  0  0
  -18.4129    2.3708    1.2477 C   0  0  0  0  0  0  0  0  0  0  0  0
  -17.0462    2.5215    1.3940 C   0  0  0  0  0  0  0  0  0  0  0  0
  -16.2635    1.4830    1.8763 C   0  0  0  0  0  0  0  0  0  0  0  0
  -19.1701    5.3702   -0.0242 H   0  0  0  0  0  0  0  0  0  0  0  0
  -16.7172    5.6329    0.2440 H   0  0  0  0  0  0  0  0  0  0  0  0
  -14.6028    4.7977    0.8561 H   0  0  0  0  0  0  0  0  0  0  0  0
  -13.2422    2.8796    1.7239 H   0  0  0  0  0  0  0  0  0  0  0  0
  -14.1323   -1.4151    3.1306 H   0  0  0  0  0  0  0  0  0  0  0  0
  -16.6226   -1.6672    2.9273 H   0  0  0  0  0  0  0  0  0  0  0  0
  -18.7399   -0.7660    2.3352 H   0  0  0  0  0  0  0  0  0  0  0  0
  -20.1167    1.0795    1.4544 H   0  0  0  0  0  0  0  0  0  0  0  0
  -12.6534    0.6521    2.5454 C   0  0  0  0  0  0  0  0  0  0  0  0
  -11.9533    1.3576    3.4793 C   0  0  0  0  0  0  0  0  0  0  0  0
  -10.5495    1.3143    3.5506 C   0  0  0  0  0  0  0  0  0  0  0  0
   -9.8894    0.5234    2.6277 C   0  0  0  0  0  0  0  0  0  0  0  0
   -8.4937    0.4598    2.6165 C   0  0  0  0  0  0  0  0  0  0  0  0
   -7.7803   -0.2849    1.6941 C   0  0  0  0  0  0  0  0  0  0  0  0
   -8.4789   -1.0084    0.7276 C   0  0  0  0  0  0  0  0  0  0  0  0
   -7.8015   -1.7193   -0.2105 C   0  0  0  0  0  0  0  0  0  0  0  0
   -8.5431   -2.4161   -1.1853 C   0  0  0  0  0  0  0  0  0  0  0  0
   -9.9146   -2.3716   -1.1800 C   0  0  0  0  0  0  0  0  0  0  0  0
  -10.5532   -1.6175   -0.1877 C   0  0  0  0  0  0  0  0  0  0  0  0
  -11.9199   -1.5882   -0.2681 C   0  0  0  0  0  0  0  0  0  0  0  0
  -12.6375   -0.8236    0.6681 C   0  0  0  0  0  0  0  0  0  0  0  0
  -11.9430   -0.1284    1.6398 C   0  0  0  0  0  0  0  0  0  0  0  0
  -10.5699   -0.1963    1.6760 C   0  0  0  0  0  0  0  0  0  0  0  0
   -9.8525   -0.9313    0.7664 C   0  0  0  0  0  0  0  0  0  0  0  0
  -12.4527    1.9730    4.1931 H   0  0  0  0  0  0  0  0  0  0  0  0
  -10.0064    1.8661    4.2852 H   0  0  0  0  0  0  0  0  0  0  0  0
   -7.9559    1.0229    3.3809 H   0  0  0  0  0  0  0  0  0  0  0  0
   -6.6999   -0.3277    1.7164 H   0  0  0  0  0  0  0  0  0  0  0  0
   -8.0327   -2.9960   -1.9419 H   0  0  0  0  0  0  0  0  0  0  0  0
  -10.4972   -2.9098   -1.9365 H   0  0  0  0  0  0  0  0  0  0  0  0
  -12.4869   -2.1241   -1.0031 H   0  0  0  0  0  0  0  0  0  0  0  0
  -13.7108   -0.8108    0.5593 H   0  0  0  0  0  0  0  0  0  0  0  0
   -6.3699   -1.7244   -0.4247 C   0  0  0  0  0  0  0  0  0  0  0  0
   -5.7712   -0.4785   -0.6140 C   0  0  0  0  0  0  0  0  0  0  0  0
   -4.4502   -0.3621   -0.9502 C   0  0  0  0  0  0  0  0  0  0  0  0
   -3.7046   -1.5405   -1.1016 C   0  0  0  0  0  0  0  0  0  0  0  0
   -2.3890   -1.4113   -1.4596 C   0  0  0  0  0  0  0  0  0  0  0  0
   -1.5906   -2.5386   -1.6515 C   0  0  0  0  0  0  0  0  0  0  0  0
   -2.1380   -3.7887   -1.4789 C   0  0  0  0  0  0  0  0  0  0  0  0
   -1.3257   -4.9214   -1.6761 C   0  0  0  0  0  0  0  0  0  0  0  0
   -1.8836   -6.1457   -1.4892 C   0  0  0  0  0  0  0  0  0  0  0  0
   -3.2147   -6.2773   -1.1202 C   0  0  0  0  0  0  0  0  0  0  0  0
   -3.9900   -5.1529   -0.9372 C   0  0  0  0  0  0  0  0  0  0  0  0
   -5.3395   -5.2392   -0.5782 C   0  0  0  0  0  0  0  0  0  0  0  0
   -6.1276   -4.1044   -0.4050 C   0  0  0  0  0  0  0  0  0  0  0  0
   -5.5965   -2.8501   -0.5804 C   0  0  0  0  0  0  0  0  0  0  0  0
   -4.2640   -2.7804   -0.9207 C   0  0  0  0  0  0  0  0  0  0  0  0
   -3.4546   -3.8727   -1.1171 C   0  0  0  0  0  0  0  0  0  0  0  0
   -6.3459    0.4457   -0.5006 H   0  0  0  0  0  0  0  0  0  0  0  0
   -4.0034    0.6034   -1.0901 H   0  0  0  0  0  0  0  0  0  0  0  0
   -1.9327   -0.4366   -1.6047 H   0  0  0  0  0  0  0  0  0  0  0  0
   -0.5620   -2.4301   -1.9051 H   0  0  0  0  0  0  0  0  0  0  0  0
   -1.2763   -7.0392   -1.6276 H   0  0  0  0  0  0  0  0  0  0  0  0
   -3.6948   -7.2385   -0.9788 H   0  0  0  0  0  0  0  0  0  0  0  0
   -5.7132   -6.2441   -0.4381 H   0  0  0  0  0  0  0  0  0  0  0  0
   -7.1345   -4.2438   -0.1247 H   0  0  0  0  0  0  0  0  0  0  0  0
    4.0985   -4.3530    0.2199 O   0  0  0  0  0  0  0  0  0  0  0  0
    4.0117   -4.9802   -1.1370 S   0  0  0  0  0  0  0  0  0  0  0  0
    4.3260   -6.4442   -1.0921 O   0  0  0  0  0  0  0  0  0  0  0  0
    2.4347   -4.7037   -1.8702 C   0  0  0  0  0  0  0  0  0  0  0  0
    1.1601   -5.0056   -1.3920 C   0  0  0  0  0  0  0  0  0  0  0  0
    0.0630   -4.6997   -2.1414 C   0  0  0  0  0  0  0  0  0  0  0  0
    0.2909   -4.0933   -3.3807 C   0  0  0  0  0  0  0  0  0  0  0  0
    1.5514   -3.8029   -3.8404 C   0  0  0  0  0  0  0  0  0  0  0  0
    2.6850   -4.1069   -3.0723 C   0  0  0  0  0  0  0  0  0  0  0  0
    4.0642   -3.7825   -3.3265 C   0  0  0  0  0  0  0  0  0  0  0  0
    4.6289   -3.0882   -4.4060 C   0  0  0  0  0  0  0  0  0  0  0  0
    5.9714   -2.7647   -4.4380 C   0  0  0  0  0  0  0  0  0  0  0  0
    6.8286   -3.0952   -3.4374 C   0  0  0  0  0  0  0  0  0  0  0  0
    6.2451   -3.7996   -2.3641 C   0  0  0  0  0  0  0  0  0  0  0  0
    4.9226   -4.1139   -2.3400 C   0  0  0  0  0  0  0  0  0  0  0  0
    1.0551   -5.4731   -0.4439 H   0  0  0  0  0  0  0  0  0  0  0  0
   -0.6157   -3.8630   -3.9541 H   0  0  0  0  0  0  0  0  0  0  0  0
    1.6580   -3.3303   -4.8214 H   0  0  0  0  0  0  0  0  0  0  0  0
    4.0144   -2.7781   -5.2640 H   0  0  0  0  0  0  0  0  0  0  0  0
    6.3852   -2.2241   -5.3089 H   0  0  0  0  0  0  0  0  0  0  0  0
    6.9146   -4.0851   -1.5575 H   0  0  0  0  0  0  0  0  0  0  0  0
    8.2518   -2.8006   -3.3754 C   0  0  0  0  0  0  0  0  0  0  0  0
    9.1858   -3.3590   -4.1905 C   0  0  0  0  0  0  0  0  0  0  0  0
   10.5301   -3.1319   -3.9754 C   0  0  0  0  0  0  0  0  0  0  0  0
   10.9550   -2.3413   -2.9341 C   0  0  0  0  0  0  0  0  0  0  0  0
   12.3160   -2.1322   -2.7075 C   0  0  0  0  0  0  0  0  0  0  0  0
   12.7721   -1.3506   -1.6556 C   0  0  0  0  0  0  0  0  0  0  0  0
   11.8532   -0.7614   -0.8070 C   0  0  0  0  0  0  0  0  0  0  0  0
   12.2844    0.0241    0.2339 C   0  0  0  0  0  0  0  0  0  0  0  0
   11.3238    0.6007    1.0389 C   0  0  0  0  0  0  0  0  0  0  0  0
    9.9665    0.4093    0.8254 C   0  0  0  0  0  0  0  0  0  0  0  0
    9.5786   -0.3968   -0.2389 C   0  0  0  0  0  0  0  0  0  0  0  0
    8.2288   -0.5882   -0.4364 C   0  0  0  0  0  0  0  0  0  0  0  0
    7.7726   -1.3995   -1.4920 C   0  0  0  0  0  0  0  0  0  0  0  0
    8.6923   -1.9884   -2.3193 C   0  0  0  0  0  0  0  0  0  0  0  0
   10.0267   -1.7596   -2.0943 C   0  0  0  0  0  0  0  0  0  0  0  0
   10.5171   -0.9875   -1.0608 C   0  0  0  0  0  0  0  0  0  0  0  0
    8.8214   -3.9793   -4.9975 H   0  0  0  0  0  0  0  0  0  0  0  0
   11.2659   -3.5673   -4.6149 H   0  0  0  0  0  0  0  0  0  0  0  0
   13.0450   -2.5998   -3.3765 H   0  0  0  0  0  0  0  0  0  0  0  0
   13.8231   -1.2181   -1.5373 H   0  0  0  0  0  0  0  0  0  0  0  0
   11.6283    1.2273    1.8663 H   0  0  0  0  0  0  0  0  0  0  0  0
    9.2198    0.8568    1.4432 H   0  0  0  0  0  0  0  0  0  0  0  0
    7.4724   -0.1330    0.1839 H   0  0  0  0  0  0  0  0  0  0  0  0
    6.7259   -1.5169   -1.6229 H   0  0  0  0  0  0  0  0  0  0  0  0
   13.6790    0.1946    0.6128 C   0  0  0  0  0  0  0  0  0  0  0  0
   14.3918   -0.9771    0.9165 C   0  0  0  0  0  0  0  0  0  0  0  0
   15.6806   -0.9968    1.3552 C   0  0  0  0  0  0  0  0  0  0  0  0
   16.3195    0.2069    1.5089 C   0  0  0  0  0  0  0  0  0  0  0  0
   17.6241    0.1733    1.9438 C   0  0  0  0  0  0  0  0  0  0  0  0
   18.2830    1.3976    2.0878 C   0  0  0  0  0  0  0  0  0  0  0  0
   17.6270    2.5845    1.7974 C   0  0  0  0  0  0  0  0  0  0  0  0
   18.3204    3.7964    1.9375 C   0  0  0  0  0  0  0  0  0  0  0  0
   17.6676    4.9678    1.6450 C   0  0  0  0  0  0  0  0  0  0  0  0
   16.3494    4.9780    1.2151 C   0  0  0  0  0  0  0  0  0  0  0  0
   15.6755    3.7811    1.0744 C   0  0  0  0  0  0  0  0  0  0  0  0
   14.3603    3.7469    0.6316 C   0  0  0  0  0  0  0  0  0  0  0  0
   13.6685    2.5410    0.4707 C   0  0  0  0  0  0  0  0  0  0  0  0
   14.3276    1.3834    0.7673 C   0  0  0  0  0  0  0  0  0  0  0  0
   15.6517    1.3883    1.2167 C   0  0  0  0  0  0  0  0  0  0  0  0
   16.3204    2.5957    1.3647 C   0  0  0  0  0  0  0  0  0  0  0  0
   13.8895   -1.9259    0.7823 H   0  0  0  0  0  0  0  0  0  0  0  0
   16.2074   -1.9301    1.5942 H   0  0  0  0  0  0  0  0  0  0  0  0
   18.1327   -0.7509    2.1697 H   0  0  0  0  0  0  0  0  0  0  0  0
   19.3059    1.4107    2.4478 H   0  0  0  0  0  0  0  0  0  0  0  0
   18.1672    5.9028    1.7450 H   0  0  0  0  0  0  0  0  0  0  0  0
   15.8549    5.9128    1.0170 H   0  0  0  0  0  0  0  0  0  0  0  0
   13.8448    4.6670    0.4041 H   0  0  0  0  0  0  0  0  0  0  0  0
   12.6556    2.5424    0.1069 H   0  0  0  0  0  0  0  0  0  0  0  0
   19.6926    3.7752    2.3247 C   0  0  0  0  0  0  0  0  0  0  0  0
   20.1312    4.0249    3.5776 C   0  0  0  0  0  0  0  0  0  0  0  0
   21.4922    3.9031    3.9077 C   0  0  0  0  0  0  0  0  0  0  0  0
   22.4131    3.5224    2.9470 C   0  0  0  0  0  0  0  0  0  0  0  0
   23.7326    3.3832    3.2885 C   0  0  0  0  0  0  0  0  0  0  0  0
   24.6529    2.9796    2.3568 C   0  0  0  0  0  0  0  0  0  0  0  0
   24.2193    2.7255    1.0874 C   0  0  0  0  0  0  0  0  0  0  0  0
   25.1148    2.3145    0.1207 C   0  0  0  0  0  0  0  0  0  0  0  0
   24.7518    2.0414   -1.1782 C   0  0  0  0  0  0  0  0  0  0  0  0
   23.4169    2.1909   -1.5021 C   0  0  0  0  0  0  0  0  0  0  0  0
   22.4981    2.5976   -0.5631 C   0  0  0  0  0  0  0  0  0  0  0  0
   21.1538    2.7334   -0.8890 C   0  0  0  0  0  0  0  0  0  0  0  0
   20.2432    3.1257    0.0659 C   0  0  0  0  0  0  0  0  0  0  0  0
   20.6200    3.3942    1.3491 C   0  0  0  0  0  0  0  0  0  0  0  0
   21.9670    3.2716    1.6771 C   0  0  0  0  0  0  0  0  0  0  0  0
   22.8869    2.8633    0.7198 C   0  0  0  0  0  0  0  0  0  0  0  0
   19.4713    4.3186    4.3771 H   0  0  0  0  0  0  0  0  0  0  0  0
   21.8350    4.1120    4.9172 H   0  0  0  0  0  0  0  0  0  0  0  0
   24.1037    3.5801    4.3063 H   0  0  0  0  0  0  0  0  0  0  0  0
   25.6831    2.8572    2.6042 H   0  0  0  0  0  0  0  0  0  0  0  0
   25.4526    1.7242   -1.9195 H   0  0  0  0  0  0  0  0  0  0  0  0
   23.0363    2.0012   -2.4926 H   0  0  0  0  0  0  0  0  0  0  0  0
   20.8661    2.5140   -1.8987 H   0  0  0  0  0  0  0  0  0  0  0  0
   19.1963    3.2211   -0.2537 H   0  0  0  0  0  0  0  0  0  0  0  0
  -28.0393    0.0607   -0.8500 H   0  0  0  0  0  0  0  0  0  0  0  0
   26.1701    2.1958    0.3792 H   0  0  0  0  0  0  0  0  0  0  0  0
  1  2  2  0
  2  3  2  0
  2  4  1  0
  4  5  2  0
  5  6  1  0
  6  7  2  0
  7  8  1  0
  8  9  2  0
  9 10  1  0
 10 11  2  0
 11 12  1  0
 12 13  2  0
 13 14  1  0
 14 15  2  0
 15  2  1  0
  9  4  1  0
 15 10  1  0
  5 16  1  0
  7 17  1  0
  8 18  1  0
 11 19  1  0
 12 20  1  0
 14 21  1  0
 22 23  2  0
 23 24  1  0
 24 25  2  0
 25 26  1  0
 26 27  2  0
 27 28  1  0
 28 29  2  0
 29 30  1  0
 30 31  2  0
 31 32  1  0
 32 33  2  0
 33 34  1  0
 34 35  2  0
 35 36  1  0
 36 37  2  0
 35 22  1  0
 36 25  1  0
 37 28  1  0
 37 32  1  0
 23 38  1  0
 24 39  1  0
 26 40  1  0
 27 41  1  0
 30 42  1  0
 31 43  1  0
 33 44  1  0
 34 45  1  0
 46 47  2  0
 47 48  1  0
 48 49  2  0
 49 50  1  0
 50 51  2  0
 51 52  1  0
 52 53  2  0
 53 54  1  0
 54 55  2  0
 55 56  1  0
 56 57  2  0
 57 58  1  0
 58 59  2  0
 59 60  1  0
 60 61  2  0
 59 46  1  0
 60 49  1  0
 61 52  1  0
 61 56  1  0
 47 62  1  0
 48 63  1  0
 50 64  1  0
 51 65  1  0
 54 66  1  0
 55 67  1  0
 57 68  1  0
 58 69  1  0
 70 71  2  0
 71 72  1  0
 72 73  2  0
 73 74  1  0
 74 75  2  0
 75 76  1  0
 76 77  2  0
 77 78  1  0
 78 79  2  0
 79 80  1  0
 80 81  2  0
 81 82  1  0
 82 83  2  0
 83 84  1  0
 84 85  2  0
 83 70  1  0
 84 73  1  0
 85 76  1  0
 85 80  1  0
 71 86  1  0
 72 87  1  0
 74 88  1  0
 75 89  1  0
 78 90  1  0
 79 91  1  0
 81 92  1  0
 82 93  1  0
 94 95  2  0
 95 96  2  0
 95 97  1  0
 97 98  2  0
 98 99  1  0
 99100  2  0
100101  1  0
101102  2  0
102103  1  0
103104  2  0
104105  1  0
105106  2  0
106107  1  0
107108  2  0
108 95  1  0
102 97  1  0
108103  1  0
 98109  1  0
100110  1  0
101111  1  0
104112  1  0
105113  1  0
107114  1  0
115116  2  0
116117  1  0
117118  2  0
118119  1  0
119120  2  0
120121  1  0
121122  2  0
122123  1  0
123124  2  0
124125  1  0
125126  2  0
126127  1  0
127128  2  0
128129  1  0
129130  2  0
128115  1  0
129118  1  0
130121  1  0
130125  1  0
116131  1  0
117132  1  0
119133  1  0
120134  1  0
123135  1  0
124136  1  0
126137  1  0
127138  1  0
139140  2  0
140141  1  0
141142  2  0
142143  1  0
143144  2  0
144145  1  0
145146  2  0
146147  1  0
147148  2  0
148149  1  0
149150  2  0
150151  1  0
151152  2  0
152153  1  0
153154  2  0
152139  1  0
153142  1  0
154145  1  0
154149  1  0
140155  1  0
141156  1  0
143157  1  0
144158  1  0
147159  1  0
148160  1  0
150161  1  0
151162  1  0
163164  2  0
164165  1  0
165166  2  0
166167  1  0
167168  2  0
168169  1  0
169170  2  0
170171  1  0
171172  2  0
172173  1  0
173174  2  0
174175  1  0
175176  2  0
176177  1  0
177178  2  0
176163  1  0
177166  1  0
178169  1  0
178173  1  0
164179  1  0
165180  1  0
167181  1  0
168182  1  0
171183  1  0
172184  1  0
174185  1  0
175186  1  0
 13 22  1  0
 29 46  1  0
 53 70  1  0
 77 99  1  0
106115  1  0
122139  1  0
146163  1  0
  6187  1  0
170188  1  0
M  END
