
     RDKit          3D

162185  0  0  0  0  0  0  0  0999 V2000
  -22.2724    4.2573    3.1650 N   0  0  0  0  0  0  0  0  0  0  0  0
  -22.5572    3.7537    2.1474 C   0  0  0  0  0  0  0  0  0  0  0  0
  -22.9177    3.1595    0.9005 C   0  0  0  0  0  0  0  0  0  0  0  0
  -24.2499    3.1922    0.5160 C   0  0  0  0  0  0  0  0  0  0  0  0
  -24.6986    2.6554   -0.6489 C   0  0  0  0  0  0  0  0  0  0  0  0
  -23.7602    2.0505   -1.4795 C   0  0  0  0  0  0  0  0  0  0  0  0
  -22.4528    2.0181   -1.1038 C   0  0  0  0  0  0  0  0  0  0  0  0
  -21.9763    2.5624    0.0849 C   0  0  0  0  0  0  0  0  0  0  0  0
  -25.0002    3.6703    1.1660 H   0  0  0  0  0  0  0  0  0  0  0  0
  -24.1064    1.6330   -2.3941 H   0  0  0  0  0  0  0  0  0  0  0  0
  -21.7166    1.5488   -1.7542 H   0  0  0  0  0  0  0  0  0  0  0  0
  -20.5838    2.5666    0.4547 C   0  0  0  0  0  0  0  0  0  0  0  0
  -19.9386    3.7739    0.7209 C   0  0  0  0  0  0  0  0  0  0  0  0
  -18.6090    3.8393    1.0073 C   0  0  0  0  0  0  0  0  0  0  0  0
  -17.8186    2.6846    1.0492 C   0  0  0  0  0  0  0  0  0  0  0  0
  -16.4784    2.7911    1.3368 C   0  0  0  0  0  0  0  0  0  0  0  0
  -15.7381    1.6215    1.3637 C   0  0  0  0  0  0  0  0  0  0  0  0
  -16.3132    0.4072    1.1161 C   0  0  0  0  0  0  0  0  0  0  0  0
  -15.5811   -0.7563    1.1624 C   0  0  0  0  0  0  0  0  0  0  0  0
  -16.1518   -1.9870    0.9405 C   0  0  0  0  0  0  0  0  0  0  0  0
  -17.4887   -2.0830    0.6589 C   0  0  0  0  0  0  0  0  0  0  0  0
  -18.2615   -0.9134    0.5999 C   0  0  0  0  0  0  0  0  0  0  0  0
  -19.5907   -0.9660    0.3231 C   0  0  0  0  0  0  0  0  0  0  0  0
  -20.3599    0.1651    0.2675 C   0  0  0  0  0  0  0  0  0  0  0  0
  -19.8133    1.4260    0.4977 C   0  0  0  0  0  0  0  0  0  0  0  0
  -18.4524    1.4900    0.7902 C   0  0  0  0  0  0  0  0  0  0  0  0
  -17.6893    0.3241    0.8240 C   0  0  0  0  0  0  0  0  0  0  0  0
  -20.5091    4.6876    0.7031 H   0  0  0  0  0  0  0  0  0  0  0  0
  -18.1381    4.7858    1.2163 H   0  0  0  0  0  0  0  0  0  0  0  0
  -15.9903    3.7136    1.5386 H   0  0  0  0  0  0  0  0  0  0  0  0
  -14.6760    1.6638    1.5967 H   0  0  0  0  0  0  0  0  0  0  0  0
  -15.5238   -2.8615    0.9976 H   0  0  0  0  0  0  0  0  0  0  0  0
  -17.9961   -3.0173    0.4747 H   0  0  0  0  0  0  0  0  0  0  0  0
  -20.0106   -1.9533    0.1529 H   0  0  0  0  0  0  0  0  0  0  0  0
  -21.4116    0.0691    0.0612 H   0  0  0  0  0  0  0  0  0  0  0  0
  -10.7018   -0.2061   -1.8816 O   0  0  0  0  0  0  0  0  0  0  0  0
  -10.7384    0.5564   -0.5884 S   0  0  0  0  0  0  0  0  0  0  0  0
  -10.8130    2.0261   -0.7978 O   0  0  0  0  0  0  0  0  0  0  0  0
  -11.9521   -0.0535    0.5011 C   0  0  0  0  0  0  0  0  0  0  0  0
  -13.3111   -0.1288    0.3617 C   0  0  0  0  0  0  0  0  0  0  0  0
  -14.1237   -0.6621    1.3659 C   0  0  0  0  0  0  0  0  0  0  0  0
  -13.4882   -1.1022    2.4918 C   0  0  0  0  0  0  0  0  0  0  0  0
  -12.1189   -1.0245    2.6286 C   0  0  0  0  0  0  0  0  0  0  0  0
  -11.3087   -0.4923    1.6233 C   0  0  0  0  0  0  0  0  0  0  0  0
   -9.8800   -0.3890    1.5682 C   0  0  0  0  0  0  0  0  0  0  0  0
   -8.9278   -0.7844    2.5280 C   0  0  0  0  0  0  0  0  0  0  0  0
   -7.5801   -0.6592    2.2984 C   0  0  0  0  0  0  0  0  0  0  0  0
   -7.0603   -0.1503    1.1391 C   0  0  0  0  0  0  0  0  0  0  0  0
   -7.9947    0.2459    0.1874 C   0  0  0  0  0  0  0  0  0  0  0  0
   -9.3449    0.1195    0.4226 C   0  0  0  0  0  0  0  0  0  0  0  0
  -13.8112    0.2269   -0.5263 H   0  0  0  0  0  0  0  0  0  0  0  0
  -14.1115   -1.5245    3.2883 H   0  0  0  0  0  0  0  0  0  0  0  0
  -11.6923   -1.4056    3.5727 H   0  0  0  0  0  0  0  0  0  0  0  0
   -9.2602   -1.2021    3.4839 H   0  0  0  0  0  0  0  0  0  0  0  0
   -6.8516   -0.9636    3.0540 H   0  0  0  0  0  0  0  0  0  0  0  0
   -7.6344    0.6521   -0.7351 H   0  0  0  0  0  0  0  0  0  0  0  0
   -5.6384    0.0070    0.8429 C   0  0  0  0  0  0  0  0  0  0  0  0
   -4.9353    0.9510    1.5588 C   0  0  0  0  0  0  0  0  0  0  0  0
   -3.6069    1.2034    1.3135 C   0  0  0  0  0  0  0  0  0  0  0  0
   -2.9335    0.4952    0.3176 C   0  0  0  0  0  0  0  0  0  0  0  0
   -1.5995    0.7325    0.0717 C   0  0  0  0  0  0  0  0  0  0  0  0
   -0.9278    0.0114   -0.9184 C   0  0  0  0  0  0  0  0  0  0  0  0
   -1.6206   -0.9386   -1.6380 C   0  0  0  0  0  0  0  0  0  0  0  0
   -0.9681   -1.6753   -2.6236 C   0  0  0  0  0  0  0  0  0  0  0  0
   -1.6950   -2.6044   -3.3130 C   0  0  0  0  0  0  0  0  0  0  0  0
   -3.0382   -2.8275   -3.0559 C   0  0  0  0  0  0  0  0  0  0  0  0
   -3.7024   -2.1100   -2.0788 C   0  0  0  0  0  0  0  0  0  0  0  0
   -5.0327   -2.3448   -1.8197 C   0  0  0  0  0  0  0  0  0  0  0  0
   -5.7106   -1.6382   -0.8337 C   0  0  0  0  0  0  0  0  0  0  0  0
   -4.9816   -0.6971   -0.1422 C   0  0  0  0  0  0  0  0  0  0  0  0
   -3.6399   -0.4460   -0.3935 C   0  0  0  0  0  0  0  0  0  0  0  0
   -2.9853   -1.1655   -1.3719 C   0  0  0  0  0  0  0  0  0  0  0  0
   -5.4050    1.5262    2.3437 H   0  0  0  0  0  0  0  0  0  0  0  0
   -3.0342    1.9390    1.8557 H   0  0  0  0  0  0  0  0  0  0  0  0
   -1.0582    1.4886    0.6473 H   0  0  0  0  0  0  0  0  0  0  0  0
    0.0911    0.2626   -1.0847 H   0  0  0  0  0  0  0  0  0  0  0  0
   -1.2381   -3.2007   -4.0966 H   0  0  0  0  0  0  0  0  0  0  0  0
   -3.6217   -3.5666   -3.5960 H   0  0  0  0  0  0  0  0  0  0  0  0
   -5.6080   -3.0973   -2.3745 H   0  0  0  0  0  0  0  0  0  0  0  0
   -6.7493   -1.8302   -0.6251 H   0  0  0  0  0  0  0  0  0  0  0  0
    3.5341   -0.6527   -6.4708 N   0  0  0  0  0  0  0  0  0  0  0  0
    3.0567   -0.8610   -5.4362 C   0  0  0  0  0  0  0  0  0  0  0  0
    2.4566   -1.1500   -4.1461 C   0  0  0  0  0  0  0  0  0  0  0  0
    1.0615   -1.2550   -4.0499 C   0  0  0  0  0  0  0  0  0  0  0  0
    0.4885   -1.5384   -2.8494 C   0  0  0  0  0  0  0  0  0  0  0  0
    1.3350   -1.7152   -1.7697 C   0  0  0  0  0  0  0  0  0  0  0  0
    2.6769   -1.6204   -1.8321 C   0  0  0  0  0  0  0  0  0  0  0  0
    3.2873   -1.3200   -3.0795 C   0  0  0  0  0  0  0  0  0  0  0  0
    0.4445   -1.1118   -4.9204 H   0  0  0  0  0  0  0  0  0  0  0  0
    0.8680   -1.9498   -0.8041 H   0  0  0  0  0  0  0  0  0  0  0  0
    3.3379   -1.7681   -0.9630 H   0  0  0  0  0  0  0  0  0  0  0  0
    4.7196   -1.1143   -3.0626 C   0  0  0  0  0  0  0  0  0  0  0  0
    5.2101    0.1429   -3.4074 C   0  0  0  0  0  0  0  0  0  0  0  0
    6.5288    0.4391   -3.2142 C   0  0  0  0  0  0  0  0  0  0  0  0
    7.3859   -0.5084   -2.6757 C   0  0  0  0  0  0  0  0  0  0  0  0
    8.7196   -0.1333   -2.4408 C   0  0  0  0  0  0  0  0  0  0  0  0
    9.5627   -1.0512   -1.8565 C   0  0  0  0  0  0  0  0  0  0  0  0
    9.1158   -2.3090   -1.5114 C   0  0  0  0  0  0  0  0  0  0  0  0
    9.9845   -3.1920   -0.9145 C   0  0  0  0  0  0  0  0  0  0  0  0
    9.4873   -4.4556   -0.5774 C   0  0  0  0  0  0  0  0  0  0  0  0
    8.1935   -4.8288   -0.8134 C   0  0  0  0  0  0  0  0  0  0  0  0
    7.3318   -3.9232   -1.4073 C   0  0  0  0  0  0  0  0  0  0  0  0
    6.0089   -4.2538   -1.6146 C   0  0  0  0  0  0  0  0  0  0  0  0
    5.1748   -3.3132   -2.1659 C   0  0  0  0  0  0  0  0  0  0  0  0
    5.5746   -2.0434   -2.5401 C   0  0  0  0  0  0  0  0  0  0  0  0
    6.9482   -1.7552   -2.3313 C   0  0  0  0  0  0  0  0  0  0  0  0
    7.7806   -2.6880   -1.7490 C   0  0  0  0  0  0  0  0  0  0  0  0
    4.5257    0.8660   -3.8218 H   0  0  0  0  0  0  0  0  0  0  0  0
    6.9385    1.4016   -3.4721 H   0  0  0  0  0  0  0  0  0  0  0  0
    9.0889    0.8334   -2.7059 H   0  0  0  0  0  0  0  0  0  0  0  0
   10.6086   -0.7655   -1.6547 H   0  0  0  0  0  0  0  0  0  0  0  0
   10.1620   -5.1782   -0.1034 H   0  0  0  0  0  0  0  0  0  0  0  0
    7.8050   -5.8281   -0.5501 H   0  0  0  0  0  0  0  0  0  0  0  0
    5.6713   -5.2471   -1.3338 H   0  0  0  0  0  0  0  0  0  0  0  0
    4.1345   -3.5770   -2.3498 H   0  0  0  0  0  0  0  0  0  0  0  0
   15.7283   -2.8138   -2.2908 O   0  0  0  0  0  0  0  0  0  0  0  0
   15.0830   -1.6267   -1.6248 S   0  0  0  0  0  0  0  0  0  0  0  0
   14.8902   -0.5013   -2.5781 O   0  0  0  0  0  0  0  0  0  0  0  0
   13.5944   -2.1062   -0.8160 C   0  0  0  0  0  0  0  0  0  0  0  0
   12.3599   -2.5105   -1.3377 C   0  0  0  0  0  0  0  0  0  0  0  0
   11.3237   -2.8560   -0.5237 C   0  0  0  0  0  0  0  0  0  0  0  0
   11.5956   -2.7780    0.8713 C   0  0  0  0  0  0  0  0  0  0  0  0
   12.7981   -2.3846    1.3565 C   0  0  0  0  0  0  0  0  0  0  0  0
   13.8669   -2.0224    0.5230 C   0  0  0  0  0  0  0  0  0  0  0  0
   15.1623   -1.5138    0.8666 C   0  0  0  0  0  0  0  0  0  0  0  0
   15.6831   -1.2443    2.1395 C   0  0  0  0  0  0  0  0  0  0  0  0
   16.9149   -0.6747    2.3234 C   0  0  0  0  0  0  0  0  0  0  0  0
   17.6986   -0.3405    1.2445 C   0  0  0  0  0  0  0  0  0  0  0  0
   17.1794   -0.6142   -0.0046 C   0  0  0  0  0  0  0  0  0  0  0  0
   15.9495   -1.1829   -0.1767 C   0  0  0  0  0  0  0  0  0  0  0  0
   12.2453   -2.5432   -2.4075 H   0  0  0  0  0  0  0  0  0  0  0  0
   10.7624   -3.0621    1.4982 H   0  0  0  0  0  0  0  0  0  0  0  0
   12.9342   -2.3542    2.4552 H   0  0  0  0  0  0  0  0  0  0  0  0
   15.1109   -1.4756    3.0516 H   0  0  0  0  0  0  0  0  0  0  0  0
   17.3191   -0.4723    3.3161 H   0  0  0  0  0  0  0  0  0  0  0  0
   17.7949   -0.3547   -0.8587 H   0  0  0  0  0  0  0  0  0  0  0  0
   19.0086    0.3309    1.4165 C   0  0  0  0  0  0  0  0  0  0  0  0
   20.1735   -0.2857    1.0446 C   0  0  0  0  0  0  0  0  0  0  0  0
   21.3682    0.3477    1.2510 C   0  0  0  0  0  0  0  0  0  0  0  0
   21.4763    1.6138    1.8299 C   0  0  0  0  0  0  0  0  0  0  0  0
   22.7124    2.2058    2.0025 C   0  0  0  0  0  0  0  0  0  0  0  0
   22.8075    3.4743    2.5714 C   0  0  0  0  0  0  0  0  0  0  0  0
   21.6287    4.0925    2.9438 C   0  0  0  0  0  0  0  0  0  0  0  0
   21.7512    5.3505    3.5056 C   0  0  0  0  0  0  0  0  0  0  0  0
   20.5840    5.9886    3.8833 C   0  0  0  0  0  0  0  0  0  0  0  0
   19.3458    5.4014    3.7112 C   0  0  0  0  0  0  0  0  0  0  0  0
   19.2576    4.1353    3.1435 C   0  0  0  0  0  0  0  0  0  0  0  0
   18.0230    3.5413    2.9577 C   0  0  0  0  0  0  0  0  0  0  0  0
   17.9473    2.2887    2.3906 C   0  0  0  0  0  0  0  0  0  0  0  0
   19.0792    1.5812    1.9896 C   0  0  0  0  0  0  0  0  0  0  0  0
   20.3043    2.2310    2.2024 C   0  0  0  0  0  0  0  0  0  0  0  0
   20.4028    3.4817    2.7622 C   0  0  0  0  0  0  0  0  0  0  0  0
   20.1130   -1.2610    0.5975 H   0  0  0  0  0  0  0  0  0  0  0  0
   22.3112   -0.1020    0.9697 H   0  0  0  0  0  0  0  0  0  0  0  0
   23.6389    1.7019    1.7014 H   0  0  0  0  0  0  0  0  0  0  0  0
   23.7751    3.9144    2.6991 H   0  0  0  0  0  0  0  0  0  0  0  0
   20.7036    6.9748    4.3258 H   0  0  0  0  0  0  0  0  0  0  0  0
   18.4505    5.9084    4.0114 H   0  0  0  0  0  0  0  0  0  0  0  0
   17.1363    4.0741    3.2618 H   0  0  0  0  0  0  0  0  0  0  0  0
   16.9828    1.8558    2.2478 H   0  0  0  0  0  0  0  0  0  0  0  0
  -25.7339    2.6559   -0.9858 H   0  0  0  0  0  0  0  0  0  0  0  0
   22.7254    5.8291    3.6521 H   0  0  0  0  0  0  0  0  0  0  0  0
  1  2  3  0
  2  3  1  0
  3  4  2  0
  4  5  1  0
  5  6  2  0
  6  7  1  0
  7  8  2  0
  8  3  1  0
  4  9  1  0
  6 10  1  0
  7 11  1  0
 12 13  2  0
 13 14  1  0
 14 15  2  0
 15 16  1  0
 16 17  2  0
 17 18  1  0
 18 19  2  0
 19 20  1  0
 20 21  2  0
 21 22  1  0
 22 23  2  0
 23 24  1  0
 24 25  2  0
 25 26  1  0
 26 27  2  0
 25 12  1  0
 26 15  1  0
 27 18  1  0
 27 22  1  0
 13 28  1  0
 14 29  1  0
 16 30  1  0
 17 31  1  0
 20 32  1  0
 21 33  1  0
 23 34  1  0
 24 35  1  0
 36 37  2  0
 37 38  2  0
 37 39  1  0
 39 40  2  0
 40 41  1  0
 41 42  2  0
 42 43  1  0
 43 44  2  0
 44 45  1  0
 45 46  2  0
 46 47  1  0
 47 48  2  0
 48 49  1  0
 49 50  2  0
 50 37  1  0
 44 39  1  0
 50 45  1  0
 40 51  1  0
 42 52  1  0
 43 53  1  0
 46 54  1  0
 47 55  1  0
 49 56  1  0
 57 58  2  0
 58 59  1  0
 59 60  2  0
 60 61  1  0
 61 62  2  0
 62 63  1  0
 63 64  2  0
 64 65  1  0
 65 66  2  0
 66 67  1  0
 67 68  2  0
 68 69  1  0
 69 70  2  0
 70 71  1  0
 71 72  2  0
 70 57  1  0
 71 60  1  0
 72 63  1  0
 72 67  1  0
 58 73  1  0
 59 74  1  0
 61 75  1  0
 62 76  1  0
 65 77  1  0
 66 78  1  0
 68 79  1  0
 69 80  1  0
 81 82  3  0
 82 83  1  0
 83 84  2  0
 84 85  1  0
 85 86  2  0
 86 87  1  0
 87 88  2  0
 88 83  1  0
 84 89  1  0
 86 90  1  0
 87 91  1  0
 92 93  2  0
 93 94  1  0
 94 95  2  0
 95 96  1  0
 96 97  2  0
 97 98  1  0
 98 99  2  0
 99100  1  0
100101  2  0
101102  1  0
102103  2  0
103104  1  0
104105  2  0
105106  1  0
106107  2  0
105 92  1  0
106 95  1  0
107 98  1  0
107102  1  0
 93108  1  0
 94109  1  0
 96110  1  0
 97111  1  0
100112  1  0
101113  1  0
103114  1  0
104115  1  0
116117  2  0
117118  2  0
117119  1  0
119120  2  0
120121  1  0
121122  2  0
122123  1  0
123124  2  0
124125  1  0
125126  2  0
126127  1  0
127128  2  0
128129  1  0
129130  2  0
130117  1  0
124119  1  0
130125  1  0
120131  1  0
122132  1  0
123133  1  0
126134  1  0
127135  1  0
129136  1  0
137138  2  0
138139  1  0
139140  2  0
140141  1  0
141142  2  0
142143  1  0
143144  2  0
144145  1  0
145146  2  0
146147  1  0
147148  2  0
148149  1  0
149150  2  0
150151  1  0
151152  2  0
150137  1  0
151140  1  0
152143  1  0
152147  1  0
138153  1  0
139154  1  0
141155  1  0
142156  1  0
145157  1  0
146158  1  0
148159  1  0
149160  1  0
  8 12  1  0
 19 41  1  0
 48 57  1  0
 64 85  1  0
 88 92  1  0
 99121  1  0
128137  1  0
  5161  1  0
144162  1  0
M  END
