
     RDKit          3D

142161  0  0  0  0  0  0  0  0999 V2000
  -18.3309    0.5388   -4.1330 N   0  0  0  0  0  0  0  0  0  0  0  0
  -18.9880    0.3927   -3.1832 C   0  0  0  0  0  0  0  0  0  0  0  0
  -19.7932    0.2399   -2.0089 C   0  0  0  0  0  0  0  0  0  0  0  0
  -21.1525    0.4568   -2.0277 C   0  0  0  0  0  0  0  0  0  0  0  0
  -21.9189    0.3232   -0.8952 C   0  0  0  0  0  0  0  0  0  0  0  0
  -21.2957   -0.0401    0.2920 C   0  0  0  0  0  0  0  0  0  0  0  0
  -19.9200   -0.2533    0.2818 C   0  0  0  0  0  0  0  0  0  0  0  0
  -19.1444   -0.1257   -0.8325 C   0  0  0  0  0  0  0  0  0  0  0  0
  -21.6662    0.7420   -2.9465 H   0  0  0  0  0  0  0  0  0  0  0  0
  -21.8244   -0.1659    1.2261 H   0  0  0  0  0  0  0  0  0  0  0  0
  -19.4412   -0.5379    1.2077 H   0  0  0  0  0  0  0  0  0  0  0  0
  -17.7249   -0.4222   -0.8351 C   0  0  0  0  0  0  0  0  0  0  0  0
  -17.2316   -1.4113   -1.6996 C   0  0  0  0  0  0  0  0  0  0  0  0
  -15.9052   -1.7659   -1.7075 C   0  0  0  0  0  0  0  0  0  0  0  0
  -14.9835   -1.1591   -0.8562 C   0  0  0  0  0  0  0  0  0  0  0  0
  -13.6559   -1.5236   -0.8818 C   0  0  0  0  0  0  0  0  0  0  0  0
  -12.7448   -0.9139   -0.0413 C   0  0  0  0  0  0  0  0  0  0  0  0
  -13.1776    0.0643    0.8251 C   0  0  0  0  0  0  0  0  0  0  0  0
  -12.2549    0.6737    1.6452 C   0  0  0  0  0  0  0  0  0  0  0  0
  -12.7695    1.6807    2.4934 C   0  0  0  0  0  0  0  0  0  0  0  0
  -14.0707    2.0451    2.5244 C   0  0  0  0  0  0  0  0  0  0  0  0
  -14.9684    1.4038    1.6806 C   0  0  0  0  0  0  0  0  0  0  0  0
  -16.2813    1.7698    1.6979 C   0  0  0  0  0  0  0  0  0  0  0  0
  -17.2154    1.1648    0.8646 C   0  0  0  0  0  0  0  0  0  0  0  0
  -16.8141    0.1773    0.0034 C   0  0  0  0  0  0  0  0  0  0  0  0
  -15.4576   -0.1843   -0.0037 C   0  0  0  0  0  0  0  0  0  0  0  0
  -14.5347    0.4173    0.8313 C   0  0  0  0  0  0  0  0  0  0  0  0
  -17.9223   -1.8952   -2.3588 H   0  0  0  0  0  0  0  0  0  0  0  0
  -15.5402   -2.5278   -2.3777 H   0  0  0  0  0  0  0  0  0  0  0  0
  -13.3245   -2.2869   -1.5606 H   0  0  0  0  0  0  0  0  0  0  0  0
  -11.6990   -1.1704   -0.0478 H   0  0  0  0  0  0  0  0  0  0  0  0
  -12.0474    2.1621    3.1414 H   0  0  0  0  0  0  0  0  0  0  0  0
  -14.4412    2.8164    3.1804 H   0  0  0  0  0  0  0  0  0  0  0  0
  -16.6463    2.5435    2.3578 H   0  0  0  0  0  0  0  0  0  0  0  0
  -18.2348    1.4992    0.9056 H   0  0  0  0  0  0  0  0  0  0  0  0
   -7.9982   -3.4467    2.7333 N   0  0  0  0  0  0  0  0  0  0  0  0
   -8.4224   -2.3947    2.4586 C   0  0  0  0  0  0  0  0  0  0  0  0
   -8.9428   -1.1021    2.1088 C   0  0  0  0  0  0  0  0  0  0  0  0
  -10.3051   -0.8641    2.0572 C   0  0  0  0  0  0  0  0  0  0  0  0
  -10.8433    0.3468    1.7217 C   0  0  0  0  0  0  0  0  0  0  0  0
   -9.9450    1.3645    1.4233 C   0  0  0  0  0  0  0  0  0  0  0  0
   -8.5891    1.1350    1.4724 C   0  0  0  0  0  0  0  0  0  0  0  0
   -8.0617   -0.1152    1.8204 C   0  0  0  0  0  0  0  0  0  0  0  0
  -10.9591   -1.6892    2.2988 H   0  0  0  0  0  0  0  0  0  0  0  0
  -10.2901    2.3524    1.1507 H   0  0  0  0  0  0  0  0  0  0  0  0
   -7.8876    1.9299    1.2399 H   0  0  0  0  0  0  0  0  0  0  0  0
   -6.5957   -0.2039    1.9397 C   0  0  0  0  0  0  0  0  0  0  0  0
   -6.0600   -0.4542    3.2128 C   0  0  0  0  0  0  0  0  0  0  0  0
   -4.7104   -0.4286    3.4048 C   0  0  0  0  0  0  0  0  0  0  0  0
   -3.8276   -0.1609    2.3734 C   0  0  0  0  0  0  0  0  0  0  0  0
   -2.4733   -0.1193    2.5641 C   0  0  0  0  0  0  0  0  0  0  0  0
   -1.5696    0.1600    1.5300 C   0  0  0  0  0  0  0  0  0  0  0  0
   -2.0715    0.3988    0.2730 C   0  0  0  0  0  0  0  0  0  0  0  0
   -1.1917    0.6626   -0.7481 C   0  0  0  0  0  0  0  0  0  0  0  0
   -1.7531    0.8910   -2.0067 C   0  0  0  0  0  0  0  0  0  0  0  0
   -3.1023    0.8547   -2.2161 C   0  0  0  0  0  0  0  0  0  0  0  0
   -3.9712    0.5843   -1.1596 C   0  0  0  0  0  0  0  0  0  0  0  0
   -5.3307    0.5542   -1.3723 C   0  0  0  0  0  0  0  0  0  0  0  0
   -6.2208    0.2925   -0.3408 C   0  0  0  0  0  0  0  0  0  0  0  0
   -5.7131    0.0553    0.9277 C   0  0  0  0  0  0  0  0  0  0  0  0
   -4.3302    0.0844    1.1113 C   0  0  0  0  0  0  0  0  0  0  0  0
   -3.4355    0.3548    0.0979 C   0  0  0  0  0  0  0  0  0  0  0  0
   -6.7379   -0.6630    4.0029 H   0  0  0  0  0  0  0  0  0  0  0  0
   -4.2861   -0.6224    4.3978 H   0  0  0  0  0  0  0  0  0  0  0  0
   -2.0417   -0.3066    3.5527 H   0  0  0  0  0  0  0  0  0  0  0  0
   -0.5130    0.2015    1.7662 H   0  0  0  0  0  0  0  0  0  0  0  0
   -1.0919    1.1081   -2.8578 H   0  0  0  0  0  0  0  0  0  0  0  0
   -3.4715    1.0402   -3.2142 H   0  0  0  0  0  0  0  0  0  0  0  0
   -5.7272    0.7373   -2.3635 H   0  0  0  0  0  0  0  0  0  0  0  0
   -7.2968    0.2624   -0.5413 H   0  0  0  0  0  0  0  0  0  0  0  0
    3.7398   -2.0989    1.1277 N   0  0  0  0  0  0  0  0  0  0  0  0
    3.1412   -1.2316    0.6217 C   0  0  0  0  0  0  0  0  0  0  0  0
    2.3813   -0.1508    0.0167 C   0  0  0  0  0  0  0  0  0  0  0  0
    1.0223   -0.2701   -0.1083 C   0  0  0  0  0  0  0  0  0  0  0  0
    0.2477    0.7221   -0.6435 C   0  0  0  0  0  0  0  0  0  0  0  0
    0.9445    1.8642   -1.0574 C   0  0  0  0  0  0  0  0  0  0  0  0
    2.3081    1.9952   -0.9386 C   0  0  0  0  0  0  0  0  0  0  0  0
    3.0652    1.0027   -0.4015 C   0  0  0  0  0  0  0  0  0  0  0  0
    0.5445   -1.2038    0.2258 H   0  0  0  0  0  0  0  0  0  0  0  0
    0.3657    2.6593   -1.4842 H   0  0  0  0  0  0  0  0  0  0  0  0
    2.8258    2.8948   -1.2710 H   0  0  0  0  0  0  0  0  0  0  0  0
    4.5047    1.0648   -0.1854 C   0  0  0  0  0  0  0  0  0  0  0  0
    4.9002    1.8529    0.8936 C   0  0  0  0  0  0  0  0  0  0  0  0
    6.2406    1.9234    1.2087 C   0  0  0  0  0  0  0  0  0  0  0  0
    7.2013    1.2371    0.4892 C   0  0  0  0  0  0  0  0  0  0  0  0
    8.5443    1.3077    0.8348 C   0  0  0  0  0  0  0  0  0  0  0  0
    9.5320    0.6151    0.1409 C   0  0  0  0  0  0  0  0  0  0  0  0
    9.1392   -0.1630   -0.9241 C   0  0  0  0  0  0  0  0  0  0  0  0
   10.0949   -0.8514   -1.6222 C   0  0  0  0  0  0  0  0  0  0  0  0
    9.6555   -1.6241   -2.7079 C   0  0  0  0  0  0  0  0  0  0  0  0
    8.3276   -1.6932   -3.0568 C   0  0  0  0  0  0  0  0  0  0  0  0
    7.3643   -0.9886   -2.3321 C   0  0  0  0  0  0  0  0  0  0  0  0
    6.0226   -1.0682   -2.6786 C   0  0  0  0  0  0  0  0  0  0  0  0
    5.0604   -0.3834   -1.9655 C   0  0  0  0  0  0  0  0  0  0  0  0
    5.4497    0.3849   -0.9049 C   0  0  0  0  0  0  0  0  0  0  0  0
    6.8066    0.4590   -0.5792 C   0  0  0  0  0  0  0  0  0  0  0  0
    7.7850   -0.2256   -1.2656 C   0  0  0  0  0  0  0  0  0  0  0  0
    4.1696    2.4115    1.4866 H   0  0  0  0  0  0  0  0  0  0  0  0
    6.5766    2.5244    2.0364 H   0  0  0  0  0  0  0  0  0  0  0  0
    8.8287    1.9264    1.6752 H   0  0  0  0  0  0  0  0  0  0  0  0
   10.5734    0.7057    0.4288 H   0  0  0  0  0  0  0  0  0  0  0  0
   10.3964   -2.1616   -3.2601 H   0  0  0  0  0  0  0  0  0  0  0  0
    7.9961   -2.2877   -3.8910 H   0  0  0  0  0  0  0  0  0  0  0  0
    5.7327   -1.6723   -3.5145 H   0  0  0  0  0  0  0  0  0  0  0  0
    4.0040   -0.4348   -2.2330 H   0  0  0  0  0  0  0  0  0  0  0  0
   13.8173   -2.4200    2.7521 N   0  0  0  0  0  0  0  0  0  0  0  0
   13.5461   -2.0102    1.6958 C   0  0  0  0  0  0  0  0  0  0  0  0
   13.1885   -1.5096    0.3826 C   0  0  0  0  0  0  0  0  0  0  0  0
   11.8886   -1.3925   -0.0231 C   0  0  0  0  0  0  0  0  0  0  0  0
   11.5147   -0.9162   -1.2769 C   0  0  0  0  0  0  0  0  0  0  0  0
   12.5327   -0.5498   -2.1320 C   0  0  0  0  0  0  0  0  0  0  0  0
   13.8475   -0.6643   -1.7304 C   0  0  0  0  0  0  0  0  0  0  0  0
   14.2077   -1.1434   -0.4750 C   0  0  0  0  0  0  0  0  0  0  0  0
   11.0961   -1.6882    0.6689 H   0  0  0  0  0  0  0  0  0  0  0  0
   12.2614   -0.1732   -3.1216 H   0  0  0  0  0  0  0  0  0  0  0  0
   14.6127   -0.3685   -2.4287 H   0  0  0  0  0  0  0  0  0  0  0  0
   15.6202   -1.3143   -0.1441 C   0  0  0  0  0  0  0  0  0  0  0  0
   16.0714   -2.6078    0.1924 C   0  0  0  0  0  0  0  0  0  0  0  0
   17.4017   -2.8420    0.4427 C   0  0  0  0  0  0  0  0  0  0  0  0
   18.3323   -1.8333    0.3748 C   0  0  0  0  0  0  0  0  0  0  0  0
   19.6649   -2.0558    0.6176 C   0  0  0  0  0  0  0  0  0  0  0  0
   20.6152   -1.0546    0.5508 C   0  0  0  0  0  0  0  0  0  0  0  0
   20.2266    0.2447    0.2260 C   0  0  0  0  0  0  0  0  0  0  0  0
   21.1551    1.2557    0.1622 C   0  0  0  0  0  0  0  0  0  0  0  0
   20.7560    2.5352   -0.1515 C   0  0  0  0  0  0  0  0  0  0  0  0
   19.4193    2.7618   -0.3947 C   0  0  0  0  0  0  0  0  0  0  0  0
   18.4761    1.7258   -0.3288 C   0  0  0  0  0  0  0  0  0  0  0  0
   17.1447    1.9626   -0.5731 C   0  0  0  0  0  0  0  0  0  0  0  0
   16.1743    0.9554   -0.5169 C   0  0  0  0  0  0  0  0  0  0  0  0
   16.5751   -0.3269   -0.2017 C   0  0  0  0  0  0  0  0  0  0  0  0
   17.9313   -0.5485    0.0497 C   0  0  0  0  0  0  0  0  0  0  0  0
   18.8848    0.4483   -0.0143 C   0  0  0  0  0  0  0  0  0  0  0  0
   15.3132   -3.3849    0.2387 H   0  0  0  0  0  0  0  0  0  0  0  0
   17.7081   -3.8418    0.6958 H   0  0  0  0  0  0  0  0  0  0  0  0
   19.9902   -3.0671    0.8744 H   0  0  0  0  0  0  0  0  0  0  0  0
   21.6669   -1.2491    0.7437 H   0  0  0  0  0  0  0  0  0  0  0  0
   21.4957    3.3504   -0.2047 H   0  0  0  0  0  0  0  0  0  0  0  0
   19.0749    3.7357   -0.6395 H   0  0  0  0  0  0  0  0  0  0  0  0
   16.8188    2.9576   -0.8171 H   0  0  0  0  0  0  0  0  0  0  0  0
   15.1454    1.1906   -0.6952 H   0  0  0  0  0  0  0  0  0  0  0  0
  -22.9860    0.4875   -0.8907 H   0  0  0  0  0  0  0  0  0  0  0  0
   22.2067    1.0923    0.3507 H   0  0  0  0  0  0  0  0  0  0  0  0
  1  2  3  0
  2  3  1  0
  3  4  2  0
  4  5  1  0
  5  6  2  0
  6  7  1  0
  7  8  2  0
  8  3  1  0
  4  9  1  0
  6 10  1  0
  7 11  1  0
 12 13  2  0
 13 14  1  0
 14 15  2  0
 15 16  1  0
 16 17  2  0
 17 18  1  0
 18 19  2  0
 19 20  1  0
 20 21  2  0
 21 22  1  0
 22 23  2  0
 23 24  1  0
 24 25  2  0
 25 26  1  0
 26 27  2  0
 25 12  1  0
 26 15  1  0
 27 18  1  0
 27 22  1  0
 13 28  1  0
 14 29  1  0
 16 30  1  0
 17 31  1  0
 20 32  1  0
 21 33  1  0
 23 34  1  0
 24 35  1  0
 36 37  3  0
 37 38  1  0
 38 39  2  0
 39 40  1  0
 40 41  2  0
 41 42  1  0
 42 43  2  0
 43 38  1  0
 39 44  1  0
 41 45  1  0
 42 46  1  0
 47 48  2  0
 48 49  1  0
 49 50  2  0
 50 51  1  0
 51 52  2  0
 52 53  1  0
 53 54  2  0
 54 55  1  0
 55 56  2  0
 56 57  1  0
 57 58  2  0
 58 59  1  0
 59 60  2  0
 60 61  1  0
 61 62  2  0
 60 47  1  0
 61 50  1  0
 62 53  1  0
 62 57  1  0
 48 63  1  0
 49 64  1  0
 51 65  1  0
 52 66  1  0
 55 67  1  0
 56 68  1  0
 58 69  1  0
 59 70  1  0
 71 72  3  0
 72 73  1  0
 73 74  2  0
 74 75  1  0
 75 76  2  0
 76 77  1  0
 77 78  2  0
 78 73  1  0
 74 79  1  0
 76 80  1  0
 77 81  1  0
 82 83  2  0
 83 84  1  0
 84 85  2  0
 85 86  1  0
 86 87  2  0
 87 88  1  0
 88 89  2  0
 89 90  1  0
 90 91  2  0
 91 92  1  0
 92 93  2  0
 93 94  1  0
 94 95  2  0
 95 96  1  0
 96 97  2  0
 95 82  1  0
 96 85  1  0
 97 88  1  0
 97 92  1  0
 83 98  1  0
 84 99  1  0
 86100  1  0
 87101  1  0
 90102  1  0
 91103  1  0
 93104  1  0
 94105  1  0
106107  3  0
107108  1  0
108109  2  0
109110  1  0
110111  2  0
111112  1  0
112113  2  0
113108  1  0
109114  1  0
111115  1  0
112116  1  0
117118  2  0
118119  1  0
119120  2  0
120121  1  0
121122  2  0
122123  1  0
123124  2  0
124125  1  0
125126  2  0
126127  1  0
127128  2  0
128129  1  0
129130  2  0
130131  1  0
131132  2  0
130117  1  0
131120  1  0
132123  1  0
132127  1  0
118133  1  0
119134  1  0
121135  1  0
122136  1  0
125137  1  0
126138  1  0
128139  1  0
129140  1  0
  8 12  1  0
 19 40  1  0
 43 47  1  0
 54 75  1  0
 78 82  1  0
 89110  1  0
113117  1  0
  5141  1  0
124142  1  0
M  END
