118

O         20.11150       -2.03750       -2.41980
S         20.28120       -0.70550       -1.74510
O         20.13220        0.43460       -2.68290
C         21.80380       -0.63490       -0.87180
C         23.12120       -0.69000       -1.34270
C         24.12650       -0.61570       -0.40850
C         23.85390       -0.49190        0.94100
C         22.54640       -0.44280        1.35050
C         21.46640       -0.51310        0.44570
C         20.06370       -0.47530        0.73260
C         19.42960       -0.34990        1.98310
C         18.06060       -0.31950        2.11940
C         17.24990       -0.41170        1.03600
C         17.85510       -0.53760       -0.21120
C         19.23480       -0.56740       -0.35040
H         23.25230       -0.78650       -2.39880
H         24.66810       -0.43660        1.65030
H         22.39560       -0.34560        2.41720
H         19.99570       -0.27340        2.90330
H         17.63530       -0.22270        3.13250
H         17.24450       -0.61240       -1.08600
C         15.80630       -0.35300        1.15550
C         15.16060       -0.06250        2.32140
N         13.80410        0.01300        2.39830
C         13.03010       -0.19340        1.33730
C         13.66990       -0.48910        0.14810
N         15.01550       -0.56600        0.06070
H         15.71170        0.12460        3.24220
H         13.06250       -0.66040       -0.74040
O          7.99220       -2.07420       -0.96060
S          8.09910       -0.60340       -0.67370
O          8.18350        0.22210       -1.90750
C          9.35270       -0.25030        0.47390
C         10.71240       -0.40090        0.38020
C         11.57740       -0.08630        1.39320
C         10.97990        0.40650        2.55130
C          9.61860        0.55930        2.64730
C          8.75770        0.23050        1.59680
C          7.32660        0.32300        1.52090
C          6.42300        0.78270        2.49340
C          5.06650        0.81430        2.25740
C          4.51270        0.40180        1.06880
C          5.39380       -0.04920        0.11390
C          6.75950       -0.07990        0.35110
H         11.14640       -0.80080       -0.55520
H         11.65330        0.66160        3.37470
H          9.23740        0.96020        3.60340
H          6.76280        1.13170        3.46940
H          4.38340        1.17640        3.02500
H          5.04220       -0.39220       -0.85050
C          3.08490        0.41250        0.77270
C          2.10140        0.87940        1.57730
N          0.78740        0.83200        1.19720
C          0.42930        0.32290        0.02160
C          1.42930       -0.14670       -0.78740
N          2.71690       -0.10240       -0.42190
H          2.37360        1.29300        2.53120
H          1.21060       -0.56520       -1.75100
O         -4.90020        0.64990        2.26060
S         -4.76410        1.31280        0.91080
O         -4.77650        2.79310        1.01280
C         -3.30900        0.71130        0.10700
C         -1.96490        0.82040        0.45580
C         -0.99050        0.27160       -0.33840
C         -1.42420       -0.37520       -1.47430
C         -2.74470       -0.48400       -1.81940
C         -3.75360        0.07230       -1.01220
C         -5.18090        0.04570       -1.19260
C         -5.93830       -0.55750       -2.20880
C         -7.30860       -0.52650       -2.22540
C         -8.02110        0.09370       -1.25370
C         -7.29140        0.70430       -0.22910
C         -5.91130        0.66360       -0.22630
H         -1.72110        1.34230        1.35370
H         -0.67240       -0.82860       -2.13720
H         -3.01100       -1.01530       -2.74070
H         -5.40960       -1.07590       -3.02640
H         -7.77440       -1.02780       -3.06630
H         -7.82400        1.21050        0.56290
C         -9.47280        0.09240       -1.23060
C        -10.21620       -0.69440       -2.06330
N        -11.57970       -0.71570       -2.01810
C        -12.24190        0.06030       -1.12960
C        -11.49230        0.85180       -0.29340
N        -10.12780        0.87480       -0.33420
H         -9.69020       -1.32550       -2.78060
H        -11.98410        1.48250        0.42730
O        -16.99840        1.42560        2.01160
S        -17.07450        1.63270        0.52710
O        -17.07840        3.07690        0.14270
C        -15.87160        0.71250       -0.32590
C        -14.49610        0.83640       -0.32800
C        -13.70670        0.00910       -1.08300
C        -14.38170       -0.95150       -1.83540
C        -15.72760       -1.06750       -1.82800
C        -16.54000       -0.22200       -1.05760
C        -17.97250       -0.18550       -0.94540
C        -18.93870       -0.99780       -1.56530
C        -20.27500       -0.80760       -1.34070
C        -20.77710        0.18270       -0.50010
C        -19.83930        0.97830        0.10860
C        -18.47800        0.78180       -0.12170
H        -13.99590        1.60010        0.26980
H        -13.78690       -1.61800       -2.43940
H        -16.19980       -1.84370       -2.44120
H        -18.61390       -1.80350       -2.24380
H        -21.03780       -1.44050       -1.82020
H        -20.12090        1.76760        0.77020
C        -22.21200        0.33610       -0.31110
C        -22.73660        1.31250        0.48940
N        -24.09600        1.42050        0.63260
C        -24.93990        0.59120        0.00570
C        -24.39870       -0.39240       -0.80130
N        -23.05940       -0.51120       -0.95140
H        -22.07450        1.99360        0.99930
H        -25.10710       -1.05500       -1.29910
H         25.14450       -0.65630       -0.75240
H        -26.01630        0.66790        0.11300
