
     RDKit          3D

176201  0  0  0  0  0  0  0  0999 V2000
  -24.2557    5.7429   -1.2746 O   0  0  0  0  0  0  0  0  0  0  0  0
  -24.4306    5.6796    0.2143 S   0  0  0  0  0  0  0  0  0  0  0  0
  -23.4738    6.5898    0.9411 O   0  0  0  0  0  0  0  0  0  0  0  0
  -26.0823    5.9505    0.6936 C   0  0  0  0  0  0  0  0  0  0  0  0
  -26.9072    7.0466    0.5317 C   0  0  0  0  0  0  0  0  0  0  0  0
  -28.1953    7.0439    1.0098 C   0  0  0  0  0  0  0  0  0  0  0  0
  -28.6402    5.9129    1.6593 C   0  0  0  0  0  0  0  0  0  0  0  0
  -27.8028    4.8439    1.8041 C   0  0  0  0  0  0  0  0  0  0  0  0
  -26.4853    4.8000    1.3338 C   0  0  0  0  0  0  0  0  0  0  0  0
  -25.5088    3.7576    1.3874 C   0  0  0  0  0  0  0  0  0  0  0  0
  -25.6514    2.4624    1.9310 C   0  0  0  0  0  0  0  0  0  0  0  0
  -24.6387    1.5331    1.8731 C   0  0  0  0  0  0  0  0  0  0  0  0
  -23.4430    1.8165    1.2849 C   0  0  0  0  0  0  0  0  0  0  0  0
  -23.3018    3.0948    0.7492 C   0  0  0  0  0  0  0  0  0  0  0  0
  -24.3016    4.0370    0.7983 C   0  0  0  0  0  0  0  0  0  0  0  0
  -26.5018    7.9014    0.0123 H   0  0  0  0  0  0  0  0  0  0  0  0
  -29.6687    5.8812    2.0536 H   0  0  0  0  0  0  0  0  0  0  0  0
  -28.2104    3.9785    2.3230 H   0  0  0  0  0  0  0  0  0  0  0  0
  -26.5725    2.1514    2.4182 H   0  0  0  0  0  0  0  0  0  0  0  0
  -24.7553    0.5372    2.2912 H   0  0  0  0  0  0  0  0  0  0  0  0
  -22.3791    3.4011    0.2657 H   0  0  0  0  0  0  0  0  0  0  0  0
  -17.7911    1.8632   -0.1154 O   0  0  0  0  0  0  0  0  0  0  0  0
  -18.2600    0.7350    0.7173 S   0  0  0  0  0  0  0  0  0  0  0  0
  -17.7052    0.7794    2.1200 O   0  0  0  0  0  0  0  0  0  0  0  0
  -19.9777    0.4855    0.7296 C   0  0  0  0  0  0  0  0  0  0  0  0
  -21.0155    1.3366    1.0972 C   0  0  0  0  0  0  0  0  0  0  0  0
  -22.3295    0.9221    1.0529 C   0  0  0  0  0  0  0  0  0  0  0  0
  -22.5565   -0.3585    0.6398 C   0  0  0  0  0  0  0  0  0  0  0  0
  -21.5419   -1.1882    0.2795 C   0  0  0  0  0  0  0  0  0  0  0  0
  -20.1907   -0.7946    0.3052 C   0  0  0  0  0  0  0  0  0  0  0  0
  -19.0213   -1.5016   -0.1212 C   0  0  0  0  0  0  0  0  0  0  0  0
  -18.9140   -2.7783   -0.6953 C   0  0  0  0  0  0  0  0  0  0  0  0
  -17.7317   -3.2852   -1.1427 C   0  0  0  0  0  0  0  0  0  0  0  0
  -16.5713   -2.5894   -1.0629 C   0  0  0  0  0  0  0  0  0  0  0  0
  -16.6588   -1.3143   -0.4903 C   0  0  0  0  0  0  0  0  0  0  0  0
  -17.8400   -0.8171   -0.0480 C   0  0  0  0  0  0  0  0  0  0  0  0
  -20.7938    2.3398    1.4161 H   0  0  0  0  0  0  0  0  0  0  0  0
  -23.5724   -0.7241    0.6029 H   0  0  0  0  0  0  0  0  0  0  0  0
  -21.8234   -2.1937   -0.0313 H   0  0  0  0  0  0  0  0  0  0  0  0
  -19.7859   -3.4051   -0.8072 H   0  0  0  0  0  0  0  0  0  0  0  0
  -17.6632   -4.2806   -1.5936 H   0  0  0  0  0  0  0  0  0  0  0  0
  -15.7845   -0.7017   -0.3857 H   0  0  0  0  0  0  0  0  0  0  0  0
  -15.2526   -2.9991   -1.5973 C   0  0  0  0  0  0  0  0  0  0  0  0
  -15.1114   -3.1410   -2.9725 C   0  0  0  0  0  0  0  0  0  0  0  0
  -13.8415   -3.3600   -3.5233 C   0  0  0  0  0  0  0  0  0  0  0  0
  -12.7088   -3.4396   -2.7297 C   0  0  0  0  0  0  0  0  0  0  0  0
  -11.4686   -3.6040   -3.3024 C   0  0  0  0  0  0  0  0  0  0  0  0
  -10.3537   -3.6304   -2.4826 C   0  0  0  0  0  0  0  0  0  0  0  0
  -10.4581   -3.4965   -1.1146 C   0  0  0  0  0  0  0  0  0  0  0  0
   -9.3344   -3.5166   -0.3643 C   0  0  0  0  0  0  0  0  0  0  0  0
   -9.4821   -3.3790    1.0264 C   0  0  0  0  0  0  0  0  0  0  0  0
  -10.7219   -3.2291    1.5748 C   0  0  0  0  0  0  0  0  0  0  0  0
  -11.8501   -3.2046    0.7890 C   0  0  0  0  0  0  0  0  0  0  0  0
  -13.0953   -3.0103    1.3299 C   0  0  0  0  0  0  0  0  0  0  0  0
  -14.2383   -2.9418    0.5574 C   0  0  0  0  0  0  0  0  0  0  0  0
  -14.1353   -3.0829   -0.8134 C   0  0  0  0  0  0  0  0  0  0  0  0
  -12.8576   -3.3021   -1.3711 C   0  0  0  0  0  0  0  0  0  0  0  0
  -11.7393   -3.3353   -0.5792 C   0  0  0  0  0  0  0  0  0  0  0  0
  -16.0040   -3.0803   -3.5931 H   0  0  0  0  0  0  0  0  0  0  0  0
  -13.7219   -3.4692   -4.5759 H   0  0  0  0  0  0  0  0  0  0  0  0
  -11.3754   -3.7158   -4.3682 H   0  0  0  0  0  0  0  0  0  0  0  0
   -9.3797   -3.7624   -2.8981 H   0  0  0  0  0  0  0  0  0  0  0  0
   -8.5910   -3.3936    1.6431 H   0  0  0  0  0  0  0  0  0  0  0  0
  -10.8787   -3.1244    2.6418 H   0  0  0  0  0  0  0  0  0  0  0  0
  -13.1631   -2.9150    2.4216 H   0  0  0  0  0  0  0  0  0  0  0  0
  -15.2111   -2.7879    1.0142 H   0  0  0  0  0  0  0  0  0  0  0  0
   -4.7201   -0.3145    0.3587 O   0  0  0  0  0  0  0  0  0  0  0  0
   -4.8137   -0.8870   -1.0165 S   0  0  0  0  0  0  0  0  0  0  0  0
   -5.1941    0.0994   -2.0670 O   0  0  0  0  0  0  0  0  0  0  0  0
   -5.9150   -2.2747   -1.0573 C   0  0  0  0  0  0  0  0  0  0  0  0
   -7.2457   -2.3368   -0.7059 C   0  0  0  0  0  0  0  0  0  0  0  0
   -7.9553   -3.5463   -0.8489 C   0  0  0  0  0  0  0  0  0  0  0  0
   -7.2479   -4.5858   -1.3410 C   0  0  0  0  0  0  0  0  0  0  0  0
   -5.9246   -4.5198   -1.6882 C   0  0  0  0  0  0  0  0  0  0  0  0
   -5.1976   -3.3181   -1.5459 C   0  0  0  0  0  0  0  0  0  0  0  0
   -3.7878   -3.0440   -1.7569 C   0  0  0  0  0  0  0  0  0  0  0  0
   -2.7461   -3.9297   -2.1438 C   0  0  0  0  0  0  0  0  0  0  0  0
   -1.4457   -3.5060   -2.1687 C   0  0  0  0  0  0  0  0  0  0  0  0
   -1.0316   -2.2424   -1.8395 C   0  0  0  0  0  0  0  0  0  0  0  0
   -2.0473   -1.3752   -1.4702 C   0  0  0  0  0  0  0  0  0  0  0  0
   -3.3710   -1.7926   -1.4387 C   0  0  0  0  0  0  0  0  0  0  0  0
   -7.7327   -1.4737   -0.3285 H   0  0  0  0  0  0  0  0  0  0  0  0
   -7.7861   -5.5416   -1.4671 H   0  0  0  0  0  0  0  0  0  0  0  0
   -5.4014   -5.3875   -2.0714 H   0  0  0  0  0  0  0  0  0  0  0  0
   -3.0239   -4.9392   -2.4093 H   0  0  0  0  0  0  0  0  0  0  0  0
   -0.6514   -4.2077   -2.4728 H   0  0  0  0  0  0  0  0  0  0  0  0
   -1.8121   -0.3650   -1.2085 H   0  0  0  0  0  0  0  0  0  0  0  0
    3.9348   -3.5312    0.8415 O   0  0  0  0  0  0  0  0  0  0  0  0
    4.1170   -2.9148   -0.5186 S   0  0  0  0  0  0  0  0  0  0  0  0
    4.6634   -3.8869   -1.5116 O   0  0  0  0  0  0  0  0  0  0  0  0
    2.6568   -2.1396   -1.0708 C   0  0  0  0  0  0  0  0  0  0  0  0
    1.3610   -2.6109   -1.2827 C   0  0  0  0  0  0  0  0  0  0  0  0
    0.3558   -1.7976   -1.7235 C   0  0  0  0  0  0  0  0  0  0  0  0
    0.6658   -0.4906   -1.9595 C   0  0  0  0  0  0  0  0  0  0  0  0
    1.9367   -0.0074   -1.7579 C   0  0  0  0  0  0  0  0  0  0  0  0
    2.9854   -0.8276   -1.2959 C   0  0  0  0  0  0  0  0  0  0  0  0
    4.3200   -0.4552   -0.9440 C   0  0  0  0  0  0  0  0  0  0  0  0
    4.9271    0.8202   -0.9817 C   0  0  0  0  0  0  0  0  0  0  0  0
    6.2033    1.0138   -0.5219 C   0  0  0  0  0  0  0  0  0  0  0  0
    6.9466   -0.0252   -0.0071 C   0  0  0  0  0  0  0  0  0  0  0  0
    6.3804   -1.2558    0.0331 C   0  0  0  0  0  0  0  0  0  0  0  0
    5.1007   -1.4541   -0.4260 C   0  0  0  0  0  0  0  0  0  0  0  0
    1.1652   -3.6410   -1.0881 H   0  0  0  0  0  0  0  0  0  0  0  0
   -0.1445    0.1602   -2.3246 H   0  0  0  0  0  0  0  0  0  0  0  0
    2.0854    1.0491   -1.9740 H   0  0  0  0  0  0  0  0  0  0  0  0
    4.3674    1.6742   -1.3975 H   0  0  0  0  0  0  0  0  0  0  0  0
    6.6384    1.9928   -0.5641 H   0  0  0  0  0  0  0  0  0  0  0  0
    6.9213   -2.1135    0.4210 H   0  0  0  0  0  0  0  0  0  0  0  0
   12.4496   -1.9234   -0.3089 O   0  0  0  0  0  0  0  0  0  0  0  0
   12.0078   -1.4434    1.0315 S   0  0  0  0  0  0  0  0  0  0  0  0
   11.8117   -2.5777    2.0056 O   0  0  0  0  0  0  0  0  0  0  0  0
   10.5657   -0.4404    0.9569 C   0  0  0  0  0  0  0  0  0  0  0  0
    9.2884   -0.7018    0.4522 C   0  0  0  0  0  0  0  0  0  0  0  0
    8.3021    0.2351    0.5084 C   0  0  0  0  0  0  0  0  0  0  0  0
    8.6245    1.4501    1.0872 C   0  0  0  0  0  0  0  0  0  0  0  0
    9.8790    1.7053    1.5835 C   0  0  0  0  0  0  0  0  0  0  0  0
   10.9088    0.7530    1.5319 C   0  0  0  0  0  0  0  0  0  0  0  0
   12.2743    0.8817    1.9460 C   0  0  0  0  0  0  0  0  0  0  0  0
   12.9443    1.9770    2.5084 C   0  0  0  0  0  0  0  0  0  0  0  0
   14.2731    1.9660    2.7998 C   0  0  0  0  0  0  0  0  0  0  0  0
   15.0427    0.8543    2.5496 C   0  0  0  0  0  0  0  0  0  0  0  0
   14.3977   -0.2318    1.9990 C   0  0  0  0  0  0  0  0  0  0  0  0
   13.0588   -0.2173    1.7089 C   0  0  0  0  0  0  0  0  0  0  0  0
    9.1252   -1.6697    0.0079 H   0  0  0  0  0  0  0  0  0  0  0  0
    7.8240    2.1820    1.1133 H   0  0  0  0  0  0  0  0  0  0  0  0
   10.0572    2.6970    2.0340 H   0  0  0  0  0  0  0  0  0  0  0  0
   12.4020    2.9075    2.7418 H   0  0  0  0  0  0  0  0  0  0  0  0
   14.7379    2.8740    3.2442 H   0  0  0  0  0  0  0  0  0  0  0  0
   14.9731   -1.1193    1.7926 H   0  0  0  0  0  0  0  0  0  0  0  0
   16.4759    0.8765    2.7869 C   0  0  0  0  0  0  0  0  0  0  0  0
   17.0888    0.5032    3.9413 C   0  0  0  0  0  0  0  0  0  0  0  0
   18.4751    0.5225    4.0428 C   0  0  0  0  0  0  0  0  0  0  0  0
   19.2537    0.9270    2.9527 C   0  0  0  0  0  0  0  0  0  0  0  0
   20.6154    0.9430    3.0093 C   0  0  0  0  0  0  0  0  0  0  0  0
   21.3679    1.3204    1.9375 C   0  0  0  0  0  0  0  0  0  0  0  0
   20.8146    1.7116    0.7277 C   0  0  0  0  0  0  0  0  0  0  0  0
   21.6147    2.0764   -0.3050 C   0  0  0  0  0  0  0  0  0  0  0  0
   20.9555    2.4768   -1.4996 C   0  0  0  0  0  0  0  0  0  0  0  0
   19.5831    2.4716   -1.5576 C   0  0  0  0  0  0  0  0  0  0  0  0
   18.8092    2.0775   -0.4706 C   0  0  0  0  0  0  0  0  0  0  0  0
   17.4267    2.0585   -0.5461 C   0  0  0  0  0  0  0  0  0  0  0  0
   16.6591    1.6601    0.5348 C   0  0  0  0  0  0  0  0  0  0  0  0
   17.2826    1.2768    1.7123 C   0  0  0  0  0  0  0  0  0  0  0  0
   18.6523    1.3089    1.7692 C   0  0  0  0  0  0  0  0  0  0  0  0
   19.4306    1.6919    0.6879 C   0  0  0  0  0  0  0  0  0  0  0  0
   16.4873    0.1890    4.7866 H   0  0  0  0  0  0  0  0  0  0  0  0
   18.9952    0.2283    4.9392 H   0  0  0  0  0  0  0  0  0  0  0  0
   21.0972    0.6578    3.9203 H   0  0  0  0  0  0  0  0  0  0  0  0
   22.4329    1.3355    2.0386 H   0  0  0  0  0  0  0  0  0  0  0  0
   21.5243    2.7880   -2.3587 H   0  0  0  0  0  0  0  0  0  0  0  0
   19.0600    2.7751   -2.4609 H   0  0  0  0  0  0  0  0  0  0  0  0
   16.9681    2.3617   -1.4616 H   0  0  0  0  0  0  0  0  0  0  0  0
   15.5807    1.6360    0.4944 H   0  0  0  0  0  0  0  0  0  0  0  0
   26.3385   -0.7318    1.7195 O   0  0  0  0  0  0  0  0  0  0  0  0
   26.2456   -0.5097    0.2259 S   0  0  0  0  0  0  0  0  0  0  0  0
   25.9695   -1.7719   -0.4999 O   0  0  0  0  0  0  0  0  0  0  0  0
   25.1536    0.7849   -0.1536 C   0  0  0  0  0  0  0  0  0  0  0  0
   23.7851    0.8856   -0.0396 C   0  0  0  0  0  0  0  0  0  0  0  0
   23.0654    2.0090   -0.3621 C   0  0  0  0  0  0  0  0  0  0  0  0
   23.8143    3.1011   -0.8328 C   0  0  0  0  0  0  0  0  0  0  0  0
   25.1982    2.9812   -0.9439 C   0  0  0  0  0  0  0  0  0  0  0  0
   25.8830    1.8544   -0.6173 C   0  0  0  0  0  0  0  0  0  0  0  0
   27.2988    1.5574   -0.7248 C   0  0  0  0  0  0  0  0  0  0  0  0
   28.3335    2.3754   -1.2109 C   0  0  0  0  0  0  0  0  0  0  0  0
   29.6318    1.9374   -1.3056 C   0  0  0  0  0  0  0  0  0  0  0  0
   29.9913    0.6607   -0.9244 C   0  0  0  0  0  0  0  0  0  0  0  0
   29.0011   -0.1610   -0.4445 C   0  0  0  0  0  0  0  0  0  0  0  0
   27.6917    0.3056   -0.3576 C   0  0  0  0  0  0  0  0  0  0  0  0
   23.2221    0.0017    0.3315 H   0  0  0  0  0  0  0  0  0  0  0  0
   23.2934    3.9877   -1.0913 H   0  0  0  0  0  0  0  0  0  0  0  0
   25.7065    3.8931   -1.3254 H   0  0  0  0  0  0  0  0  0  0  0  0
   28.1245    3.3999   -1.5361 H   0  0  0  0  0  0  0  0  0  0  0  0
   30.4332    2.5522   -1.6922 H   0  0  0  0  0  0  0  0  0  0  0  0
   29.2048   -1.1758   -0.1283 H   0  0  0  0  0  0  0  0  0  0  0  0
  -28.8197    7.9148    0.8481 H   0  0  0  0  0  0  0  0  0  0  0  0
   31.0063    0.2746   -0.9737 H   0  0  0  0  0  0  0  0  0  0  0  0
  1  2  2  0
  2  3  2  0
  2  4  1  0
  4  5  2  0
  5  6  1  0
  6  7  2  0
  7  8  1  0
  8  9  2  0
  9 10  1  0
 10 11  2  0
 11 12  1  0
 12 13  2  0
 13 14  1  0
 14 15  2  0
 15  2  1  0
  9  4  1  0
 15 10  1  0
  5 16  1  0
  7 17  1  0
  8 18  1  0
 11 19  1  0
 12 20  1  0
 14 21  1  0
 22 23  2  0
 23 24  2  0
 23 25  1  0
 25 26  2  0
 26 27  1  0
 27 28  2  0
 28 29  1  0
 29 30  2  0
 30 31  1  0
 31 32  2  0
 32 33  1  0
 33 34  2  0
 34 35  1  0
 35 36  2  0
 36 23  1  0
 30 25  1  0
 36 31  1  0
 26 37  1  0
 28 38  1  0
 29 39  1  0
 32 40  1  0
 33 41  1  0
 35 42  1  0
 43 44  2  0
 44 45  1  0
 45 46  2  0
 46 47  1  0
 47 48  2  0
 48 49  1  0
 49 50  2  0
 50 51  1  0
 51 52  2  0
 52 53  1  0
 53 54  2  0
 54 55  1  0
 55 56  2  0
 56 57  1  0
 57 58  2  0
 56 43  1  0
 57 46  1  0
 58 49  1  0
 58 53  1  0
 44 59  1  0
 45 60  1  0
 47 61  1  0
 48 62  1  0
 51 63  1  0
 52 64  1  0
 54 65  1  0
 55 66  1  0
 67 68  2  0
 68 69  2  0
 68 70  1  0
 70 71  2  0
 71 72  1  0
 72 73  2  0
 73 74  1  0
 74 75  2  0
 75 76  1  0
 76 77  2  0
 77 78  1  0
 78 79  2  0
 79 80  1  0
 80 81  2  0
 81 68  1  0
 75 70  1  0
 81 76  1  0
 71 82  1  0
 73 83  1  0
 74 84  1  0
 77 85  1  0
 78 86  1  0
 80 87  1  0
 88 89  2  0
 89 90  2  0
 89 91  1  0
 91 92  2  0
 92 93  1  0
 93 94  2  0
 94 95  1  0
 95 96  2  0
 96 97  1  0
 97 98  2  0
 98 99  1  0
 99100  2  0
100101  1  0
101102  2  0
102 89  1  0
 96 91  1  0
102 97  1  0
 92103  1  0
 94104  1  0
 95105  1  0
 98106  1  0
 99107  1  0
101108  1  0
109110  2  0
110111  2  0
110112  1  0
112113  2  0
113114  1  0
114115  2  0
115116  1  0
116117  2  0
117118  1  0
118119  2  0
119120  1  0
120121  2  0
121122  1  0
122123  2  0
123110  1  0
117112  1  0
123118  1  0
113124  1  0
115125  1  0
116126  1  0
119127  1  0
120128  1  0
122129  1  0
130131  2  0
131132  1  0
132133  2  0
133134  1  0
134135  2  0
135136  1  0
136137  2  0
137138  1  0
138139  2  0
139140  1  0
140141  2  0
141142  1  0
142143  2  0
143144  1  0
144145  2  0
143130  1  0
144133  1  0
145136  1  0
145140  1  0
131146  1  0
132147  1  0
134148  1  0
135149  1  0
138150  1  0
139151  1  0
141152  1  0
142153  1  0
154155  2  0
155156  2  0
155157  1  0
157158  2  0
158159  1  0
159160  2  0
160161  1  0
161162  2  0
162163  1  0
163164  2  0
164165  1  0
165166  2  0
166167  1  0
167168  2  0
168155  1  0
162157  1  0
168163  1  0
158169  1  0
160170  1  0
161171  1  0
164172  1  0
165173  1  0
167174  1  0
 13 27  1  0
 34 43  1  0
 50 72  1  0
 79 93  1  0
100114  1  0
121130  1  0
137159  1  0
  6175  1  0
166176  1  0
M  END
