156

C        -24.67860       -2.61480       -1.31250
C        -25.10720       -1.36950       -0.89500
C        -24.20160       -0.37750       -0.56350
C        -22.85040       -0.62700       -0.64940
C        -21.90060        0.34360       -0.32850
C        -20.54060        0.12410       -0.40840
C        -20.10290       -1.10740       -0.82340
C        -18.77960       -1.35050       -0.90760
C        -18.36630       -2.63090       -1.33240
C        -19.28610       -3.60210       -1.65140
C        -20.64760       -3.35890       -1.56840
C        -21.56320       -4.33120       -1.88920
C        -22.91110       -4.09090       -1.80660
C        -23.32340       -2.84310       -1.39120
C        -22.39180       -1.85960       -1.06430
C        -21.03560       -2.09790       -1.15050
H        -26.16800       -1.12200       -0.80930
H        -24.50770        0.60460       -0.23140
H        -22.26440        1.30560       -0.00640
H        -19.82270        0.89220       -0.14730
H        -17.32010       -2.87870       -1.41270
H        -18.94480       -4.58780       -1.98090
H        -21.16490       -5.29850       -2.20790
H        -23.61040       -4.86330       -2.06250
O        -13.45280       -1.54340        1.19350
S        -14.20450       -0.27920        1.48010
O        -14.54630       -0.12020        2.92100
C        -15.57080       -0.03550        0.44190
C        -16.66330       -0.83640        0.24570
C        -17.68330       -0.44760       -0.63930
C        -17.52230        0.73870       -1.26420
C        -16.41970        1.53470       -1.05830
C        -15.38920        1.16110       -0.18310
C        -14.12370        1.80300        0.07600
C        -13.58040        2.97890       -0.48880
C        -12.29200        3.36630       -0.19480
C        -11.45200        2.67410        0.63910
C        -12.00330        1.51630        1.19720
C        -13.27970        1.13060        0.90760
H        -16.79220       -1.78060        0.74370
H        -18.28960        1.08170       -1.95890
H        -16.36910        2.46600       -1.59900
H        -14.19700        3.57540       -1.16210
H        -11.88400        4.27680       -0.63560
H        -11.41550        0.91060        1.87060
C        -10.04550        2.95350        0.87610
C         -9.27060        3.84470        0.16540
N         -7.93600        3.91660        0.34780
C         -7.32850        3.12700        1.22670
C         -8.06900        2.24090        1.95710
N         -9.41870        2.16240        1.77220
H         -9.76590        4.47490       -0.54360
H         -7.57890        1.62800        2.69870
C         -5.87710        3.16630        1.39770
C         -5.19410        4.32830        1.63870
C         -3.81560        4.39320        1.75290
C         -3.05460        3.25980        1.62340
C         -1.68620        3.31890        1.71990
C         -0.94740        2.18790        1.57120
C         -1.54770        0.94950        1.31920
C         -0.80640       -0.17700        1.14880
C         -1.44620       -1.39490        0.87190
C         -2.79490       -1.39920        0.78340
C         -3.55590       -0.26060        0.95570
C         -4.93540       -0.35290        0.82840
C         -5.70950        0.80050        0.98360
C         -5.10620        1.99780        1.25930
C         -3.71610        2.06850        1.37550
C         -2.95310        0.93500        1.22750
H         -5.79600        5.24450        1.73960
H         -3.34580        5.36550        1.94770
H         -1.20720        4.27110        1.91570
H          0.14790        2.23340        1.63840
H         -0.81960       -2.29260        0.73800
H         -3.33760       -2.33560        0.56430
H         -5.39340       -1.29130        0.61680
H         -6.75810        0.69120        0.82220
C          0.63380       -0.19460        1.29760
C          1.26790        0.12500        2.47970
C          2.62200       -0.01060        2.62070
C          3.41850       -0.47360        1.58530
C          4.78760       -0.59320        1.77530
C          5.60390       -1.04800        0.75920
C          5.00490       -1.38000       -0.45850
C          5.75690       -1.83860       -1.51520
C          5.15720       -2.16390       -2.69350
C          3.80940       -2.04420       -2.86340
C          3.00660       -1.57770       -1.81390
C          1.64660       -1.45900       -2.01400
C          0.87620       -0.99640       -0.96830
C          1.43960       -0.66170        0.24780
C          2.80090       -0.79590        0.39640
C          3.63680       -1.25630       -0.62870
H          0.64080        0.48630        3.28980
H          3.13070        0.23730        3.54550
H          5.23030       -0.33380        2.72000
H          6.65400       -1.15950        0.90210
H          5.75840       -2.52780       -3.53380
H          3.31000       -2.30190       -3.80000
H          1.19640       -1.72090       -2.97880
H         -0.19370       -0.90050       -1.19110
O         10.38800        1.60530       -1.93470
S         10.36370        0.70680       -0.73170
O         10.01350        1.45630        0.51250
C          9.25950       -0.64890       -1.00000
C          7.89320       -0.67850       -1.17880
C          7.22700       -1.87260       -1.37610
C          7.99470       -3.00350       -1.38330
C          9.36250       -2.97870       -1.20460
C         10.04630       -1.76410       -1.00140
C         11.44320       -1.54390       -0.77200
C         12.50590       -2.46060       -0.68830
C         13.77770       -2.07460       -0.43590
C         14.12570       -0.75180       -0.24250
C         13.09560        0.15070       -0.32380
C         11.80290       -0.24520       -0.58000
H          7.32360        0.23900       -1.16630
H          7.48880       -3.95390       -1.53720
H          9.91610       -3.92440       -1.21950
H         12.31960       -3.53020       -0.82770
H         14.56580       -2.83400       -0.38250
H         13.32340        1.20420       -0.17880
C         15.51670       -0.43310        0.00570
C         15.90950        0.86470        0.22980
N         17.17970        1.21490        0.45640
C         18.17710        0.26800        0.47530
C         17.77750       -1.01230        0.25510
N         16.47840       -1.36590        0.02320
H         15.14760        1.65100        0.22520
H         18.51080       -1.82000        0.30060
C         19.52600        0.72060        0.81700
C         19.63820        1.63780        1.87870
C         20.84750        2.14730        2.25760
C         22.01760        1.79210        1.62240
C         23.22820        2.31890        2.00450
C         24.41990        1.98150        1.36260
C         24.33390        1.08830        0.31660
C         25.48020        0.74090       -0.35990
C         25.41950       -0.13830       -1.42440
C         24.19050       -0.66430       -1.80210
C         23.04560       -0.30210       -1.10810
C         21.84200       -0.82880       -1.52210
C         20.62940       -0.50710       -0.88780
C         20.68460        0.36710        0.18240
C         21.92000        0.89100        0.57430
C         23.10230        0.57410       -0.04390
H         18.72760        1.93230        2.39010
H         20.89820        2.86270        3.09570
H         23.28000        3.02600        2.83450
H         25.34840        2.43280        1.70450
H         26.31170       -0.42540       -1.97320
H         24.15630       -1.34040       -2.62050
H         21.76820       -1.52320       -2.36840
H         19.71390       -0.91490       -1.27510
H        -25.42750       -3.35890       -1.55880
H         26.45810        1.12960       -0.09820
