
     RDKit          3D

130149  0  0  0  0  0  0  0  0999 V2000
  -21.4213    0.3533    0.9536 C   0  0  0  0  0  0  0  0  0  0  0  0
  -20.8482    1.5946    0.7987 C   0  0  0  0  0  0  0  0  0  0  0  0
  -19.5253    1.6872    0.7003 N   0  0  0  0  0  0  0  0  0  0  0  0
  -18.6870    0.6092    0.7450 C   0  0  0  0  0  0  0  0  0  0  0  0
  -19.2762   -0.6042    0.9009 C   0  0  0  0  0  0  0  0  0  0  0  0
  -20.6331   -0.7283    1.0036 N   0  0  0  0  0  0  0  0  0  0  0  0
  -21.4611    2.4999    0.7575 H   0  0  0  0  0  0  0  0  0  0  0  0
  -18.6815   -1.4904    0.9906 H   0  0  0  0  0  0  0  0  0  0  0  0
  -17.2785    0.9293    0.7241 C   0  0  0  0  0  0  0  0  0  0  0  0
  -16.8357    2.0604    1.4419 C   0  0  0  0  0  0  0  0  0  0  0  0
  -15.5330    2.4563    1.4969 C   0  0  0  0  0  0  0  0  0  0  0  0
  -14.5587    1.7435    0.8289 C   0  0  0  0  0  0  0  0  0  0  0  0
  -13.2378    2.1596    0.9058 C   0  0  0  0  0  0  0  0  0  0  0  0
  -12.2694    1.4593    0.2527 C   0  0  0  0  0  0  0  0  0  0  0  0
  -12.6103    0.3393   -0.4838 C   0  0  0  0  0  0  0  0  0  0  0  0
  -11.6551   -0.3644   -1.1491 C   0  0  0  0  0  0  0  0  0  0  0  0
  -12.0488   -1.4872   -1.8911 C   0  0  0  0  0  0  0  0  0  0  0  0
  -13.3486   -1.8682   -1.9493 C   0  0  0  0  0  0  0  0  0  0  0  0
  -14.3309   -1.1620   -1.2764 C   0  0  0  0  0  0  0  0  0  0  0  0
  -15.6249   -1.5754   -1.3613 C   0  0  0  0  0  0  0  0  0  0  0  0
  -16.6120   -0.8660   -0.6839 C   0  0  0  0  0  0  0  0  0  0  0  0
  -16.2935    0.2458    0.0690 C   0  0  0  0  0  0  0  0  0  0  0  0
  -14.9478    0.6350    0.1125 C   0  0  0  0  0  0  0  0  0  0  0  0
  -13.9524   -0.0515   -0.5384 C   0  0  0  0  0  0  0  0  0  0  0  0
  -17.6270    2.6074    1.9573 H   0  0  0  0  0  0  0  0  0  0  0  0
  -15.2453    3.3366    2.0659 H   0  0  0  0  0  0  0  0  0  0  0  0
  -12.9762    3.0361    1.4851 H   0  0  0  0  0  0  0  0  0  0  0  0
  -11.2124    1.7491    0.2887 H   0  0  0  0  0  0  0  0  0  0  0  0
  -11.2888   -2.0437   -2.4201 H   0  0  0  0  0  0  0  0  0  0  0  0
  -13.6623   -2.7451   -2.5317 H   0  0  0  0  0  0  0  0  0  0  0  0
  -15.9024   -2.4442   -1.9457 H   0  0  0  0  0  0  0  0  0  0  0  0
  -17.6207   -1.2180   -0.8333 H   0  0  0  0  0  0  0  0  0  0  0  0
  -10.2345   -0.0091   -1.1745 C   0  0  0  0  0  0  0  0  0  0  0  0
   -9.7314    0.7433   -2.2177 C   0  0  0  0  0  0  0  0  0  0  0  0
   -8.3889    1.0121   -2.3446 C   0  0  0  0  0  0  0  0  0  0  0  0
   -7.4851    0.5187   -1.3994 C   0  0  0  0  0  0  0  0  0  0  0  0
   -6.1376    0.7585   -1.5337 C   0  0  0  0  0  0  0  0  0  0  0  0
   -5.2288    0.2591   -0.6236 C   0  0  0  0  0  0  0  0  0  0  0  0
   -5.6989   -0.4871    0.4302 C   0  0  0  0  0  0  0  0  0  0  0  0
   -4.8055   -1.0100    1.3343 C   0  0  0  0  0  0  0  0  0  0  0  0
   -5.3657   -1.7855    2.3743 C   0  0  0  0  0  0  0  0  0  0  0  0
   -6.7025   -2.0222    2.5067 C   0  0  0  0  0  0  0  0  0  0  0  0
   -7.5969   -1.4871    1.5846 C   0  0  0  0  0  0  0  0  0  0  0  0
   -8.9617   -1.7623    1.7268 C   0  0  0  0  0  0  0  0  0  0  0  0
   -9.8476   -1.2594    0.8021 C   0  0  0  0  0  0  0  0  0  0  0  0
   -9.3438   -0.4972   -0.2327 C   0  0  0  0  0  0  0  0  0  0  0  0
   -7.9742   -0.2242   -0.3612 C   0  0  0  0  0  0  0  0  0  0  0  0
   -7.0784   -0.7342    0.5675 C   0  0  0  0  0  0  0  0  0  0  0  0
  -10.4630    1.1146   -2.9471 H   0  0  0  0  0  0  0  0  0  0  0  0
   -8.0169    1.6002   -3.1695 H   0  0  0  0  0  0  0  0  0  0  0  0
   -5.7760    1.3494   -2.3635 H   0  0  0  0  0  0  0  0  0  0  0  0
   -4.1957    0.4525   -0.8002 H   0  0  0  0  0  0  0  0  0  0  0  0
   -4.6596   -2.2032    3.0958 H   0  0  0  0  0  0  0  0  0  0  0  0
   -7.1256   -2.6185    3.3172 H   0  0  0  0  0  0  0  0  0  0  0  0
   -9.3246   -2.3601    2.5508 H   0  0  0  0  0  0  0  0  0  0  0  0
  -10.9115   -1.4453    0.8727 H   0  0  0  0  0  0  0  0  0  0  0  0
   -3.3553   -0.9373    1.2396 C   0  0  0  0  0  0  0  0  0  0  0  0
   -2.5973    0.1703    1.0803 C   0  0  0  0  0  0  0  0  0  0  0  0
   -1.2272    0.1334    1.0421 N   0  0  0  0  0  0  0  0  0  0  0  0
   -0.5655   -1.0463    1.1667 C   0  0  0  0  0  0  0  0  0  0  0  0
   -1.3214   -2.1759    1.3344 C   0  0  0  0  0  0  0  0  0  0  0  0
   -2.6568   -2.1246    1.3696 N   0  0  0  0  0  0  0  0  0  0  0  0
   -3.0934    1.1544    1.0079 H   0  0  0  0  0  0  0  0  0  0  0  0
   -0.7955   -3.1272    1.4417 H   0  0  0  0  0  0  0  0  0  0  0  0
    0.8860   -1.0593    1.0677 C   0  0  0  0  0  0  0  0  0  0  0  0
    1.6224   -2.2300    1.1075 C   0  0  0  0  0  0  0  0  0  0  0  0
    2.9428   -2.2037    0.9426 N   0  0  0  0  0  0  0  0  0  0  0  0
    3.6681   -1.0455    0.7249 C   0  0  0  0  0  0  0  0  0  0  0  0
    2.9239    0.0890    0.6947 C   0  0  0  0  0  0  0  0  0  0  0  0
    1.5685    0.0645    0.8630 N   0  0  0  0  0  0  0  0  0  0  0  0
    1.1369   -3.1803    1.2715 H   0  0  0  0  0  0  0  0  0  0  0  0
    3.4019    1.0698    0.5759 H   0  0  0  0  0  0  0  0  0  0  0  0
    5.1126   -1.1729    0.6500 C   0  0  0  0  0  0  0  0  0  0  0  0
    5.7199   -2.0771    1.5689 C   0  0  0  0  0  0  0  0  0  0  0  0
    7.0666   -2.2560    1.5195 C   0  0  0  0  0  0  0  0  0  0  0  0
    7.8624   -1.5929    0.6103 C   0  0  0  0  0  0  0  0  0  0  0  0
    9.2294   -1.7877    0.5766 C   0  0  0  0  0  0  0  0  0  0  0  0
   10.0519   -1.1566   -0.3054 C   0  0  0  0  0  0  0  0  0  0  0  0
    9.4724   -0.2741   -1.2137 C   0  0  0  0  0  0  0  0  0  0  0  0
   10.2979    0.3764   -2.1366 C   0  0  0  0  0  0  0  0  0  0  0  0
    9.7508    1.2292   -3.0356 C   0  0  0  0  0  0  0  0  0  0  0  0
    8.3907    1.4543   -3.0414 C   0  0  0  0  0  0  0  0  0  0  0  0
    7.5531    0.8139   -2.1269 C   0  0  0  0  0  0  0  0  0  0  0  0
    6.1995    1.0206   -2.1260 C   0  0  0  0  0  0  0  0  0  0  0  0
    5.4153    0.3510   -1.1943 C   0  0  0  0  0  0  0  0  0  0  0  0
    5.9149   -0.5261   -0.2482 C   0  0  0  0  0  0  0  0  0  0  0  0
    7.3096   -0.7115   -0.2984 C   0  0  0  0  0  0  0  0  0  0  0  0
    8.1171   -0.0518   -1.2136 C   0  0  0  0  0  0  0  0  0  0  0  0
    5.0596   -2.5698    2.2581 H   0  0  0  0  0  0  0  0  0  0  0  0
    7.5570   -2.9353    2.2012 H   0  0  0  0  0  0  0  0  0  0  0  0
    9.6484   -2.4834    1.2964 H   0  0  0  0  0  0  0  0  0  0  0  0
   11.1123   -1.3146   -0.3190 H   0  0  0  0  0  0  0  0  0  0  0  0
   10.3961    1.7319   -3.7487 H   0  0  0  0  0  0  0  0  0  0  0  0
    7.9151    2.1258   -3.7411 H   0  0  0  0  0  0  0  0  0  0  0  0
    5.7653    1.6921   -2.8378 H   0  0  0  0  0  0  0  0  0  0  0  0
    4.3441    0.4768   -1.2433 H   0  0  0  0  0  0  0  0  0  0  0  0
   11.7412    0.0584   -2.0598 C   0  0  0  0  0  0  0  0  0  0  0  0
   12.3304   -0.9066   -2.8441 C   0  0  0  0  0  0  0  0  0  0  0  0
   13.6797   -1.1740   -2.7608 C   0  0  0  0  0  0  0  0  0  0  0  0
   14.4719   -0.4558   -1.8652 C   0  0  0  0  0  0  0  0  0  0  0  0
   15.8191   -0.7080   -1.7711 C   0  0  0  0  0  0  0  0  0  0  0  0
   16.6409   -0.0001   -0.8809 C   0  0  0  0  0  0  0  0  0  0  0  0
   16.1069    0.9680   -0.0804 C   0  0  0  0  0  0  0  0  0  0  0  0
   16.9041    1.6638    0.8100 C   0  0  0  0  0  0  0  0  0  0  0  0
   16.2775    2.6198    1.6030 C   0  0  0  0  0  0  0  0  0  0  0  0
   14.9160    2.8550    1.4935 C   0  0  0  0  0  0  0  0  0  0  0  0
   14.1353    2.1541    0.5981 C   0  0  0  0  0  0  0  0  0  0  0  0
   12.7751    2.4067    0.5069 C   0  0  0  0  0  0  0  0  0  0  0  0
   11.9912    1.7108   -0.3792 C   0  0  0  0  0  0  0  0  0  0  0  0
   12.5614    0.7499   -1.1828 C   0  0  0  0  0  0  0  0  0  0  0  0
   13.9116    0.5171   -1.0664 C   0  0  0  0  0  0  0  0  0  0  0  0
   14.7431    1.2005   -0.1963 C   0  0  0  0  0  0  0  0  0  0  0  0
   11.7214   -1.4628   -3.5349 H   0  0  0  0  0  0  0  0  0  0  0  0
   14.1589   -1.9276   -3.3683 H   0  0  0  0  0  0  0  0  0  0  0  0
   16.2618   -1.4718   -2.3972 H   0  0  0  0  0  0  0  0  0  0  0  0
   17.6692   -0.2527   -0.8391 H   0  0  0  0  0  0  0  0  0  0  0  0
   16.8333    3.2103    2.3075 H   0  0  0  0  0  0  0  0  0  0  0  0
   14.4631    3.6045    2.1277 H   0  0  0  0  0  0  0  0  0  0  0  0
   12.3039    3.1556    1.1363 H   0  0  0  0  0  0  0  0  0  0  0  0
   10.9262    1.8792   -0.4791 H   0  0  0  0  0  0  0  0  0  0  0  0
   18.3390    1.4766    0.9891 C   0  0  0  0  0  0  0  0  0  0  0  0
   18.9059    1.8790    2.1894 C   0  0  0  0  0  0  0  0  0  0  0  0
   20.2030    1.7332    2.4613 N   0  0  0  0  0  0  0  0  0  0  0  0
   21.0190    1.1733    1.5484 C   0  0  0  0  0  0  0  0  0  0  0  0
   20.4721    0.7613    0.3365 C   0  0  0  0  0  0  0  0  0  0  0  0
   19.1767    0.9294    0.1157 N   0  0  0  0  0  0  0  0  0  0  0  0
   18.3291    2.3291    3.0093 H   0  0  0  0  0  0  0  0  0  0  0  0
   21.0987    0.3006   -0.4438 H   0  0  0  0  0  0  0  0  0  0  0  0
  -22.5043    0.2861    1.0312 H   0  0  0  0  0  0  0  0  0  0  0  0
   22.0780    1.0267    1.6942 H   0  0  0  0  0  0  0  0  0  0  0  0
  1  2  2  0
  2  3  1  0
  3  4  2  0
  4  5  1  0
  5  6  2  0
  6  1  1  0
  2  7  1  0
  5  8  1  0
  9 10  2  0
 10 11  1  0
 11 12  2  0
 12 13  1  0
 13 14  2  0
 14 15  1  0
 15 16  2  0
 16 17  1  0
 17 18  2  0
 18 19  1  0
 19 20  2  0
 20 21  1  0
 21 22  2  0
 22 23  1  0
 23 24  2  0
 22  9  1  0
 23 12  1  0
 24 15  1  0
 24 19  1  0
 10 25  1  0
 11 26  1  0
 13 27  1  0
 14 28  1  0
 17 29  1  0
 18 30  1  0
 20 31  1  0
 21 32  1  0
 33 34  2  0
 34 35  1  0
 35 36  2  0
 36 37  1  0
 37 38  2  0
 38 39  1  0
 39 40  2  0
 40 41  1  0
 41 42  2  0
 42 43  1  0
 43 44  2  0
 44 45  1  0
 45 46  2  0
 46 47  1  0
 47 48  2  0
 46 33  1  0
 47 36  1  0
 48 39  1  0
 48 43  1  0
 34 49  1  0
 35 50  1  0
 37 51  1  0
 38 52  1  0
 41 53  1  0
 42 54  1  0
 44 55  1  0
 45 56  1  0
 57 58  2  0
 58 59  1  0
 59 60  2  0
 60 61  1  0
 61 62  2  0
 62 57  1  0
 58 63  1  0
 61 64  1  0
 65 66  2  0
 66 67  1  0
 67 68  2  0
 68 69  1  0
 69 70  2  0
 70 65  1  0
 66 71  1  0
 69 72  1  0
 73 74  2  0
 74 75  1  0
 75 76  2  0
 76 77  1  0
 77 78  2  0
 78 79  1  0
 79 80  2  0
 80 81  1  0
 81 82  2  0
 82 83  1  0
 83 84  2  0
 84 85  1  0
 85 86  2  0
 86 87  1  0
 87 88  2  0
 86 73  1  0
 87 76  1  0
 88 79  1  0
 88 83  1  0
 74 89  1  0
 75 90  1  0
 77 91  1  0
 78 92  1  0
 81 93  1  0
 82 94  1  0
 84 95  1  0
 85 96  1  0
 97 98  2  0
 98 99  1  0
 99100  2  0
100101  1  0
101102  2  0
102103  1  0
103104  2  0
104105  1  0
105106  2  0
106107  1  0
107108  2  0
108109  1  0
109110  2  0
110111  1  0
111112  2  0
110 97  1  0
111100  1  0
112103  1  0
112107  1  0
 98113  1  0
 99114  1  0
101115  1  0
102116  1  0
105117  1  0
106118  1  0
108119  1  0
109120  1  0
121122  2  0
122123  1  0
123124  2  0
124125  1  0
125126  2  0
126121  1  0
122127  1  0
125128  1  0
  4  9  1  0
 16 33  1  0
 40 57  1  0
 60 65  1  0
 68 73  1  0
 80 97  1  0
104121  1  0
  1129  1  0
124130  1  0
M  END
