130

C        -21.42130        0.35330        0.95360
C        -20.84820        1.59460        0.79870
N        -19.52530        1.68720        0.70030
C        -18.68700        0.60920        0.74500
C        -19.27620       -0.60420        0.90090
N        -20.63310       -0.72830        1.00360
H        -21.46110        2.49990        0.75750
H        -18.68150       -1.49040        0.99060
C        -17.27850        0.92930        0.72410
C        -16.83570        2.06040        1.44190
C        -15.53300        2.45630        1.49690
C        -14.55870        1.74350        0.82890
C        -13.23780        2.15960        0.90580
C        -12.26940        1.45930        0.25270
C        -12.61030        0.33930       -0.48380
C        -11.65510       -0.36440       -1.14910
C        -12.04880       -1.48720       -1.89110
C        -13.34860       -1.86820       -1.94930
C        -14.33090       -1.16200       -1.27640
C        -15.62490       -1.57540       -1.36130
C        -16.61200       -0.86600       -0.68390
C        -16.29350        0.24580        0.06900
C        -14.94780        0.63500        0.11250
C        -13.95240       -0.05150       -0.53840
H        -17.62700        2.60740        1.95730
H        -15.24530        3.33660        2.06590
H        -12.97620        3.03610        1.48510
H        -11.21240        1.74910        0.28870
H        -11.28880       -2.04370       -2.42010
H        -13.66230       -2.74510       -2.53170
H        -15.90240       -2.44420       -1.94570
H        -17.62070       -1.21800       -0.83330
C        -10.23450       -0.00910       -1.17450
C         -9.73140        0.74330       -2.21770
C         -8.38890        1.01210       -2.34460
C         -7.48510        0.51870       -1.39940
C         -6.13760        0.75850       -1.53370
C         -5.22880        0.25910       -0.62360
C         -5.69890       -0.48710        0.43020
C         -4.80550       -1.01000        1.33430
C         -5.36570       -1.78550        2.37430
C         -6.70250       -2.02220        2.50670
C         -7.59690       -1.48710        1.58460
C         -8.96170       -1.76230        1.72680
C         -9.84760       -1.25940        0.80210
C         -9.34380       -0.49720       -0.23270
C         -7.97420       -0.22420       -0.36120
C         -7.07840       -0.73420        0.56750
H        -10.46300        1.11460       -2.94710
H         -8.01690        1.60020       -3.16950
H         -5.77600        1.34940       -2.36350
H         -4.19570        0.45250       -0.80020
H         -4.65960       -2.20320        3.09580
H         -7.12560       -2.61850        3.31720
H         -9.32460       -2.36010        2.55080
H        -10.91150       -1.44530        0.87270
C         -3.35530       -0.93730        1.23960
C         -2.59730        0.17030        1.08030
N         -1.22720        0.13340        1.04210
C         -0.56550       -1.04630        1.16670
C         -1.32140       -2.17590        1.33440
N         -2.65680       -2.12460        1.36960
H         -3.09340        1.15440        1.00790
H         -0.79550       -3.12720        1.44170
C          0.88600       -1.05930        1.06770
C          1.62240       -2.23000        1.10750
N          2.94280       -2.20370        0.94260
C          3.66810       -1.04550        0.72490
C          2.92390        0.08900        0.69470
N          1.56850        0.06450        0.86300
H          1.13690       -3.18030        1.27150
H          3.40190        1.06980        0.57590
C          5.11260       -1.17290        0.65000
C          5.71990       -2.07710        1.56890
C          7.06660       -2.25600        1.51950
C          7.86240       -1.59290        0.61030
C          9.22940       -1.78770        0.57660
C         10.05190       -1.15660       -0.30540
C          9.47240       -0.27410       -1.21370
C         10.29790        0.37640       -2.13660
C          9.75080        1.22920       -3.03560
C          8.39070        1.45430       -3.04140
C          7.55310        0.81390       -2.12690
C          6.19950        1.02060       -2.12600
C          5.41530        0.35100       -1.19430
C          5.91490       -0.52610       -0.24820
C          7.30960       -0.71150       -0.29840
C          8.11710       -0.05180       -1.21360
H          5.05960       -2.56980        2.25810
H          7.55700       -2.93530        2.20120
H          9.64840       -2.48340        1.29640
H         11.11230       -1.31460       -0.31900
H         10.39610        1.73190       -3.74870
H          7.91510        2.12580       -3.74110
H          5.76530        1.69210       -2.83780
H          4.34410        0.47680       -1.24330
C         11.74120        0.05840       -2.05980
C         12.33040       -0.90660       -2.84410
C         13.67970       -1.17400       -2.76080
C         14.47190       -0.45580       -1.86520
C         15.81910       -0.70800       -1.77110
C         16.64090       -0.00010       -0.88090
C         16.10690        0.96800       -0.08040
C         16.90410        1.66380        0.81000
C         16.27750        2.61980        1.60300
C         14.91600        2.85500        1.49350
C         14.13530        2.15410        0.59810
C         12.77510        2.40670        0.50690
C         11.99120        1.71080       -0.37920
C         12.56140        0.74990       -1.18280
C         13.91160        0.51710       -1.06640
C         14.74310        1.20050       -0.19630
H         11.72140       -1.46280       -3.53490
H         14.15890       -1.92760       -3.36830
H         16.26180       -1.47180       -2.39720
H         17.66920       -0.25270       -0.83910
H         16.83330        3.21030        2.30750
H         14.46310        3.60450        2.12770
H         12.30390        3.15560        1.13630
H         10.92620        1.87920       -0.47910
C         18.33900        1.47660        0.98910
C         18.90590        1.87900        2.18940
N         20.20300        1.73320        2.46130
C         21.01900        1.17330        1.54840
C         20.47210        0.76130        0.33650
N         19.17670        0.92940        0.11570
H         18.32910        2.32910        3.00930
H         21.09870        0.30060       -0.44380
H        -22.50430        0.28610        1.03120
H         22.07800        1.02670        1.69420
