136

O        -20.21790       -2.94970        0.38880
S        -20.49400       -1.71640       -0.38810
O        -20.60240       -1.98840       -1.86880
C        -21.87570       -0.81400        0.18350
C        -23.20480       -1.17530        0.32720
C        -24.14450       -0.25970        0.79320
C        -23.70600        1.00760        1.10170
C        -22.38840        1.32340        0.94610
C        -21.40710        0.43890        0.48330
C        -19.99600        0.62560        0.33990
C        -19.21980        1.76110        0.62370
C        -17.85470        1.73800        0.49020
C        -17.15970        0.61820        0.07560
C        -17.90110       -0.48530       -0.20670
C        -19.29260       -0.47440       -0.07520
H        -23.54980       -2.15130        0.08880
H        -24.43280        1.75090        1.48020
H        -22.10060        2.34810        1.20910
H        -19.72200        2.68460        0.95820
H        -17.27270        2.62140        0.71350
H        -17.43920       -1.40180       -0.54120
N        -12.13690        3.63720       -1.09000
C        -12.75020        2.70760       -0.73220
C        -13.51700        1.56490       -0.32610
C        -14.92400        1.64020       -0.35670
C        -15.70660        0.56760       -0.01270
C        -15.02460       -0.60200        0.36420
C        -13.65560       -0.67770        0.39550
C        -12.86950        0.42070        0.04850
H        -15.39840        2.56050       -0.65670
H        -15.66750       -1.44970        0.62840
H        -13.15530       -1.60680        0.69070
N         -8.50800       -3.37500       -1.03400
C         -8.96150       -2.39000       -0.63710
C         -9.49850       -1.16240       -0.14830
C        -10.87370       -0.93620       -0.28370
C        -11.42740        0.24650        0.17210
C        -10.58630        1.17070        0.74940
C         -9.22530        0.92240        0.86980
C         -8.64670       -0.24190        0.42910
H        -11.53380       -1.67090       -0.74550
H        -10.98270        2.10690        1.14580
H         -8.57020        1.66330        1.33050
C         -7.23480       -0.57040        0.62250
C         -6.87640       -1.41010        1.67610
C         -5.54440       -1.67600        1.92780
C         -4.56010       -1.11880        1.14250
C         -3.21770       -1.38060        1.35520
C         -2.23050       -0.84030        0.55720
C         -2.54530       -0.01430       -0.49120
C         -1.56910        0.48680       -1.28800
C         -1.94290        1.28670       -2.34140
C         -3.24940        1.59720       -2.61760
C         -4.25230        1.06940       -1.78420
C         -5.56620        1.31860       -2.01280
C         -6.54000        0.77680       -1.20310
C         -6.21130       -0.04210       -0.12710
C         -4.86170       -0.28130        0.08490
C         -3.89200        0.26440       -0.72230
H         -7.61480       -1.85610        2.30340
H         -5.23570       -2.33020        2.75270
H         -2.95600       -2.04230        2.19790
H         -1.16900       -1.06470        0.75090
H         -1.16930        1.70310       -3.00080
H         -3.58310        2.21340       -3.42740
H         -5.84760        1.94930       -2.84680
H         -7.59730        0.95740       -1.36040
O          2.99480        0.96130        2.33040
S          3.25850        1.29270        0.91270
O          3.36130        2.77830        0.67890
C          2.00050        0.61090       -0.13890
C          0.64740        0.87320       -0.20110
C         -0.15560        0.24400       -1.11420
C          0.50140       -0.66680       -1.95320
C          1.83170       -0.92790       -1.89470
C          2.65220       -0.26890       -0.94900
C          4.08690       -0.36550       -0.76360
C          5.03770       -1.13350       -1.46980
C          6.35250       -1.06180       -1.19760
C          6.87180       -0.24160       -0.21670
C          5.96950        0.51150        0.48460
C          4.60310        0.44240        0.20650
H          0.21720        1.59180        0.48500
H         -0.11770       -1.19370       -2.69800
H          2.28050       -1.64110       -2.56750
H          4.69110       -1.80010       -2.25670
H          7.03730       -1.66690       -1.76810
H          6.28390        1.17470        1.26690
N         11.41940        3.25440        1.40610
C         10.91990        2.25190        1.03870
C         10.30660        1.04610        0.56740
C          8.92330        0.97130        0.44030
C          8.31450       -0.18110       -0.02130
C          9.11920       -1.24290       -0.34350
C         10.50390       -1.17010       -0.21740
C         11.13320       -0.03910        0.23400
H          8.26720        1.78650        0.68960
H          8.69830       -2.17370       -0.70630
H         11.14250       -2.02500       -0.48040
N         15.65150        1.22970        3.81530
C         15.17150        0.94070        2.81920
C         14.58980        0.56140        1.57830
C         13.20640        0.42900        1.50400
C         12.57310        0.05530        0.34880
C         13.40230       -0.18680       -0.75250
C         14.76620       -0.06510       -0.71460
C         15.37570        0.31550        0.46530
H         12.59410        0.62790        2.39410
H         12.93750       -0.47960       -1.67490
H         15.39030       -0.25660       -1.59450
C         16.82910        0.55140        0.47620
C         17.20050        1.84580        0.86030
C         18.52820        2.16420        0.81510
C         19.50360        1.26310        0.40810
C         20.82710        1.62690        0.36600
C         21.76690        0.71830       -0.04840
C         21.42630       -0.55320       -0.42510
C         22.34910       -1.49740       -0.84390
C         21.97890       -2.76720       -1.21220
C         20.65050       -3.09770       -1.15970
C         19.69550       -2.17860       -0.74510
C         18.35430       -2.51400       -0.69540
C         17.36560       -1.62990       -0.29220
C         17.75610       -0.36300        0.07320
C         19.09680       -0.00680        0.03790
C         20.09070       -0.90250       -0.37760
H         16.45990        2.57210        1.18090
H         18.83240        3.17000        1.11140
H         21.07810        2.64280        0.66960
H         22.82920        1.02120       -0.07820
H         22.72090       -3.49430       -1.54020
H         20.32110       -4.07770       -1.44200
H         18.05540       -3.51660       -0.98450
H         16.32840       -1.97740       -0.26500
H        -25.18060       -0.51930        0.91600
H         23.39170       -1.23670       -0.88450
