168

N         20.89000        3.98810        0.54650
C         21.43630        3.06360        0.12470
C         22.10330        1.90130       -0.37980
C         23.47970        1.84570       -0.31130
C         24.15140        0.73630       -0.78940
C         23.48010       -0.34640       -1.34720
C         22.10620       -0.27630       -1.40890
C         21.42280        0.82990       -0.93310
H         24.04610        2.66440        0.11390
H         24.01540       -1.20110       -1.71280
H         21.54070       -1.10050       -1.84080
C         19.96610        0.88090       -1.07430
C         19.41030        1.94120       -1.80720
C         18.05140        1.97760       -2.01890
C         17.20680        0.99970       -1.53140
C         15.83450        1.06680       -1.76500
C         14.97530        0.10350       -1.28680
C         15.48730       -0.95280       -0.55800
C         14.69830       -1.93800       -0.03760
C         15.24380       -2.98980        0.71100
C         16.59130       -3.00820        0.90890
C         17.44080       -2.02880        0.40030
C         18.80280       -2.10740        0.64550
C         19.64310       -1.13670        0.15000
C         19.12560       -0.09260       -0.58620
C         17.74130       -0.04170       -0.81080
C         16.87340       -1.00760       -0.33080
H         20.09530        2.69050       -2.17480
H         17.62240        2.78940       -2.58140
H         15.44390        1.89900       -2.33310
H         13.90160        0.14380       -1.46360
H         14.62400       -3.77140        1.12350
H         17.06240       -3.80420        1.48060
H         19.20430       -2.92630        1.22270
H         20.70630       -1.24220        0.39170
C         13.26380       -1.94860       -0.26550
C         12.76070       -2.78580       -1.24470
C         11.40410       -2.85590       -1.40660
C         10.55490       -2.09070       -0.59370
C          9.19430       -2.19290       -0.78300
C          8.32390       -1.46030       -0.00430
C          8.85120       -0.62710        0.96500
C          7.96140        0.13930        1.72640
C          8.50620        0.98780        2.65940
C          9.86740        1.07140        2.83360
C         10.76070        0.31620        2.08700
C         12.13450        0.41090        2.26390
C         12.96980       -0.35030        1.48610
C         12.45290       -1.19050        0.53840
C         11.09750       -1.26520        0.37120
C         10.20260       -0.52560        1.15490
H         13.43290       -3.35180       -1.84450
H         10.94880       -3.50200       -2.16610
H          8.81010       -2.86480       -1.56600
H          7.26030       -1.50370       -0.11320
H          7.85970        1.60980        3.28270
H         10.28320        1.75620        3.58780
H         12.49760        1.10130        3.03190
H         14.02820       -0.23950        1.67550
C          6.52530       -0.06720        1.58510
C          5.94340       -1.20310        2.15220
C          4.58290       -1.42380        2.08960
C          3.75460       -0.51070        1.45140
C          2.39580       -0.72160        1.34710
C          1.57100        0.18140        0.67330
C          2.11980        1.29260        0.10370
C          1.31400        2.18720       -0.59150
C          1.95660        3.29660       -1.15220
C          3.30320        3.50790       -1.03900
C          4.05760        2.59940       -0.35230
C          5.43200        2.82220       -0.27650
C          6.24380        1.93870        0.37470
C          5.70300        0.82750        0.96030
C          4.32300        0.60910        0.89000
C          3.50010        1.48560        0.22730
H          6.60710       -1.91210        2.64970
H          4.12150       -2.29810        2.53090
H          1.98630       -1.60230        1.80190
H          0.50570       -0.00230        0.64500
H          1.36460        4.01570       -1.69770
H          3.71900        4.40180       -1.51030
H          5.88980        3.68770       -0.72680
H          7.32030        2.12240        0.42230
N         -4.23530        4.40200       -0.24570
C         -3.43930        3.61190       -0.48240
C         -2.44700        2.59360       -0.79520
C         -1.09750        2.85280       -0.53190
C         -0.10290        1.95760       -0.82910
C         -0.53210        0.76030       -1.41930
C         -1.83930        0.49090       -1.68160
C         -2.85260        1.41470       -1.37100
H         -0.81600        3.80570       -0.06960
H          0.22000        0.02250       -1.68660
H         -2.15040       -0.43510       -2.13380
C         -4.23680        1.05540       -1.65520
C         -4.69480        1.04310       -2.95160
C         -5.99730        0.68910       -3.26190
C         -6.88310        0.33430       -2.26340
C         -8.19490       -0.03410       -2.57790
C         -9.07780       -0.39850       -1.58390
C         -8.61080       -0.38080       -0.28770
C         -9.46790       -0.73660        0.70380
C         -9.02740       -0.72700        2.03630
C         -7.75620       -0.36960        2.33850
C         -6.88910       -0.01300        1.33790
C         -5.58820        0.34030        1.65340
C         -4.68220        0.69950        0.67980
C         -5.10080        0.70610       -0.64280
C         -6.41990        0.34890       -0.96380
C         -7.30140       -0.01350        0.03120
H         -3.98110        1.32520       -3.72600
H         -6.32620        0.68770       -4.29610
H         -8.47810       -0.01980       -3.61050
H        -10.09870       -0.69290       -1.79160
H         -9.70230       -1.00390        2.83470
H         -7.40110       -0.35860        3.36110
H         -5.25320        0.33900        2.68840
H         -3.66250        0.95360        0.92430
C        -10.82690       -1.22620        0.53100
C        -11.04530       -2.61360        0.58680
C        -12.29910       -3.13500        0.43230
C        -13.41210       -2.31490        0.21310
C        -14.65090       -2.89360        0.05380
C        -15.70420       -2.04870       -0.17330
C        -15.56560       -0.65560       -0.24750
C        -16.63330        0.18090       -0.47740
C        -16.46730        1.53870       -0.53230
C        -15.21900        2.08070       -0.36020
C        -14.12240        1.27200       -0.13260
C        -12.86670        1.76440        0.03300
C        -11.79640        0.94170        0.24970
C        -11.92270       -0.43460        0.31680
C        -13.21650       -0.95150        0.15490
C        -14.30800       -0.11130       -0.07870
H        -10.20400       -3.27480        0.75300
H        -12.48700       -4.19570        0.47250
H        -14.82040       -3.93920        0.09790
H        -16.72480       -2.46430       -0.26790
H        -17.34480        2.20810       -0.71610
H        -15.06100        3.14910       -0.39660
H        -12.77320        2.85760       -0.01830
H        -10.79920        1.34860        0.37730
C        -17.91000       -0.45370       -0.81730
C        -17.96990       -1.28450       -1.92390
C        -19.15990       -1.83860       -2.30150
C        -20.29960       -1.58120       -1.59500
C        -21.48710       -2.14510       -1.97940
C        -22.67230       -1.90280       -1.27410
C        -22.59480       -1.06040       -0.15880
C        -23.77170       -0.83320        0.52000
C        -23.75240       -0.00860        1.62680
C        -22.55650        0.55820        2.01460
C        -21.36400        0.32350        1.32070
C        -20.19560        0.91260        1.75200
C        -19.04110        0.65920        1.04800
C        -19.01630       -0.16920       -0.08440
C        -20.22420       -0.74950       -0.49260
C        -21.39430       -0.50040        0.21730
H        -17.03770       -1.49840       -2.50130
H        -19.18530       -2.49280       -3.17920
H        -21.53370       -2.79150       -2.83510
H        -23.61240       -2.34280       -1.57050
H        -24.67360        0.18550        2.18180
H        -22.53310        1.20950        2.88800
H        -20.14980        1.57260        2.62760
H        -18.08120        1.09890        1.36760
H         25.23450        0.66840       -0.74750
H        -24.71420       -1.29170        0.19920
