
     RDKit          3D

168193  0  0  0  0  0  0  0  0999 V2000
   20.8900    3.9881    0.5465 N   0  0  0  0  0  0  0  0  0  0  0  0
   21.4363    3.0636    0.1247 C   0  0  0  0  0  0  0  0  0  0  0  0
   22.1033    1.9013   -0.3798 C   0  0  0  0  0  0  0  0  0  0  0  0
   23.4797    1.8457   -0.3113 C   0  0  0  0  0  0  0  0  0  0  0  0
   24.1514    0.7363   -0.7894 C   0  0  0  0  0  0  0  0  0  0  0  0
   23.4801   -0.3464   -1.3472 C   0  0  0  0  0  0  0  0  0  0  0  0
   22.1062   -0.2763   -1.4089 C   0  0  0  0  0  0  0  0  0  0  0  0
   21.4228    0.8299   -0.9331 C   0  0  0  0  0  0  0  0  0  0  0  0
   24.0461    2.6644    0.1139 H   0  0  0  0  0  0  0  0  0  0  0  0
   24.0154   -1.2011   -1.7128 H   0  0  0  0  0  0  0  0  0  0  0  0
   21.5407   -1.1005   -1.8408 H   0  0  0  0  0  0  0  0  0  0  0  0
   19.9661    0.8809   -1.0743 C   0  0  0  0  0  0  0  0  0  0  0  0
   19.4103    1.9412   -1.8072 C   0  0  0  0  0  0  0  0  0  0  0  0
   18.0514    1.9776   -2.0189 C   0  0  0  0  0  0  0  0  0  0  0  0
   17.2068    0.9997   -1.5314 C   0  0  0  0  0  0  0  0  0  0  0  0
   15.8345    1.0668   -1.7650 C   0  0  0  0  0  0  0  0  0  0  0  0
   14.9753    0.1035   -1.2868 C   0  0  0  0  0  0  0  0  0  0  0  0
   15.4873   -0.9528   -0.5580 C   0  0  0  0  0  0  0  0  0  0  0  0
   14.6983   -1.9380   -0.0376 C   0  0  0  0  0  0  0  0  0  0  0  0
   15.2438   -2.9898    0.7110 C   0  0  0  0  0  0  0  0  0  0  0  0
   16.5913   -3.0082    0.9089 C   0  0  0  0  0  0  0  0  0  0  0  0
   17.4408   -2.0288    0.4003 C   0  0  0  0  0  0  0  0  0  0  0  0
   18.8028   -2.1074    0.6455 C   0  0  0  0  0  0  0  0  0  0  0  0
   19.6431   -1.1367    0.1500 C   0  0  0  0  0  0  0  0  0  0  0  0
   19.1256   -0.0926   -0.5862 C   0  0  0  0  0  0  0  0  0  0  0  0
   17.7413   -0.0417   -0.8108 C   0  0  0  0  0  0  0  0  0  0  0  0
   16.8734   -1.0076   -0.3308 C   0  0  0  0  0  0  0  0  0  0  0  0
   20.0953    2.6905   -2.1748 H   0  0  0  0  0  0  0  0  0  0  0  0
   17.6224    2.7894   -2.5814 H   0  0  0  0  0  0  0  0  0  0  0  0
   15.4439    1.8990   -2.3331 H   0  0  0  0  0  0  0  0  0  0  0  0
   13.9016    0.1438   -1.4636 H   0  0  0  0  0  0  0  0  0  0  0  0
   14.6240   -3.7714    1.1235 H   0  0  0  0  0  0  0  0  0  0  0  0
   17.0624   -3.8042    1.4806 H   0  0  0  0  0  0  0  0  0  0  0  0
   19.2043   -2.9263    1.2227 H   0  0  0  0  0  0  0  0  0  0  0  0
   20.7063   -1.2422    0.3917 H   0  0  0  0  0  0  0  0  0  0  0  0
   13.2638   -1.9486   -0.2655 C   0  0  0  0  0  0  0  0  0  0  0  0
   12.7607   -2.7858   -1.2447 C   0  0  0  0  0  0  0  0  0  0  0  0
   11.4041   -2.8559   -1.4066 C   0  0  0  0  0  0  0  0  0  0  0  0
   10.5549   -2.0907   -0.5937 C   0  0  0  0  0  0  0  0  0  0  0  0
    9.1943   -2.1929   -0.7830 C   0  0  0  0  0  0  0  0  0  0  0  0
    8.3239   -1.4603   -0.0043 C   0  0  0  0  0  0  0  0  0  0  0  0
    8.8512   -0.6271    0.9650 C   0  0  0  0  0  0  0  0  0  0  0  0
    7.9614    0.1393    1.7264 C   0  0  0  0  0  0  0  0  0  0  0  0
    8.5062    0.9878    2.6594 C   0  0  0  0  0  0  0  0  0  0  0  0
    9.8674    1.0714    2.8336 C   0  0  0  0  0  0  0  0  0  0  0  0
   10.7607    0.3162    2.0870 C   0  0  0  0  0  0  0  0  0  0  0  0
   12.1345    0.4109    2.2639 C   0  0  0  0  0  0  0  0  0  0  0  0
   12.9698   -0.3503    1.4861 C   0  0  0  0  0  0  0  0  0  0  0  0
   12.4529   -1.1905    0.5384 C   0  0  0  0  0  0  0  0  0  0  0  0
   11.0975   -1.2652    0.3712 C   0  0  0  0  0  0  0  0  0  0  0  0
   10.2026   -0.5256    1.1549 C   0  0  0  0  0  0  0  0  0  0  0  0
   13.4329   -3.3518   -1.8445 H   0  0  0  0  0  0  0  0  0  0  0  0
   10.9488   -3.5020   -2.1661 H   0  0  0  0  0  0  0  0  0  0  0  0
    8.8101   -2.8648   -1.5660 H   0  0  0  0  0  0  0  0  0  0  0  0
    7.2603   -1.5037   -0.1132 H   0  0  0  0  0  0  0  0  0  0  0  0
    7.8597    1.6098    3.2827 H   0  0  0  0  0  0  0  0  0  0  0  0
   10.2832    1.7562    3.5878 H   0  0  0  0  0  0  0  0  0  0  0  0
   12.4976    1.1013    3.0319 H   0  0  0  0  0  0  0  0  0  0  0  0
   14.0282   -0.2395    1.6755 H   0  0  0  0  0  0  0  0  0  0  0  0
    6.5253   -0.0672    1.5851 C   0  0  0  0  0  0  0  0  0  0  0  0
    5.9434   -1.2031    2.1522 C   0  0  0  0  0  0  0  0  0  0  0  0
    4.5829   -1.4238    2.0896 C   0  0  0  0  0  0  0  0  0  0  0  0
    3.7546   -0.5107    1.4514 C   0  0  0  0  0  0  0  0  0  0  0  0
    2.3958   -0.7216    1.3471 C   0  0  0  0  0  0  0  0  0  0  0  0
    1.5710    0.1814    0.6733 C   0  0  0  0  0  0  0  0  0  0  0  0
    2.1198    1.2926    0.1037 C   0  0  0  0  0  0  0  0  0  0  0  0
    1.3140    2.1872   -0.5915 C   0  0  0  0  0  0  0  0  0  0  0  0
    1.9566    3.2966   -1.1522 C   0  0  0  0  0  0  0  0  0  0  0  0
    3.3032    3.5079   -1.0390 C   0  0  0  0  0  0  0  0  0  0  0  0
    4.0576    2.5994   -0.3523 C   0  0  0  0  0  0  0  0  0  0  0  0
    5.4320    2.8222   -0.2765 C   0  0  0  0  0  0  0  0  0  0  0  0
    6.2438    1.9387    0.3747 C   0  0  0  0  0  0  0  0  0  0  0  0
    5.7030    0.8275    0.9603 C   0  0  0  0  0  0  0  0  0  0  0  0
    4.3230    0.6091    0.8900 C   0  0  0  0  0  0  0  0  0  0  0  0
    3.5001    1.4856    0.2273 C   0  0  0  0  0  0  0  0  0  0  0  0
    6.6071   -1.9121    2.6497 H   0  0  0  0  0  0  0  0  0  0  0  0
    4.1215   -2.2981    2.5309 H   0  0  0  0  0  0  0  0  0  0  0  0
    1.9863   -1.6023    1.8019 H   0  0  0  0  0  0  0  0  0  0  0  0
    0.5057   -0.0023    0.6450 H   0  0  0  0  0  0  0  0  0  0  0  0
    1.3646    4.0157   -1.6977 H   0  0  0  0  0  0  0  0  0  0  0  0
    3.7190    4.4018   -1.5103 H   0  0  0  0  0  0  0  0  0  0  0  0
    5.8898    3.6877   -0.7268 H   0  0  0  0  0  0  0  0  0  0  0  0
    7.3203    2.1224    0.4223 H   0  0  0  0  0  0  0  0  0  0  0  0
   -4.2353    4.4020   -0.2457 N   0  0  0  0  0  0  0  0  0  0  0  0
   -3.4393    3.6119   -0.4824 C   0  0  0  0  0  0  0  0  0  0  0  0
   -2.4470    2.5936   -0.7952 C   0  0  0  0  0  0  0  0  0  0  0  0
   -1.0975    2.8528   -0.5319 C   0  0  0  0  0  0  0  0  0  0  0  0
   -0.1029    1.9576   -0.8291 C   0  0  0  0  0  0  0  0  0  0  0  0
   -0.5321    0.7603   -1.4193 C   0  0  0  0  0  0  0  0  0  0  0  0
   -1.8393    0.4909   -1.6816 C   0  0  0  0  0  0  0  0  0  0  0  0
   -2.8526    1.4147   -1.3710 C   0  0  0  0  0  0  0  0  0  0  0  0
   -0.8160    3.8057   -0.0696 H   0  0  0  0  0  0  0  0  0  0  0  0
    0.2200    0.0225   -1.6866 H   0  0  0  0  0  0  0  0  0  0  0  0
   -2.1504   -0.4351   -2.1338 H   0  0  0  0  0  0  0  0  0  0  0  0
   -4.2368    1.0554   -1.6552 C   0  0  0  0  0  0  0  0  0  0  0  0
   -4.6948    1.0431   -2.9516 C   0  0  0  0  0  0  0  0  0  0  0  0
   -5.9973    0.6891   -3.2619 C   0  0  0  0  0  0  0  0  0  0  0  0
   -6.8831    0.3343   -2.2634 C   0  0  0  0  0  0  0  0  0  0  0  0
   -8.1949   -0.0341   -2.5779 C   0  0  0  0  0  0  0  0  0  0  0  0
   -9.0778   -0.3985   -1.5839 C   0  0  0  0  0  0  0  0  0  0  0  0
   -8.6108   -0.3808   -0.2877 C   0  0  0  0  0  0  0  0  0  0  0  0
   -9.4679   -0.7366    0.7038 C   0  0  0  0  0  0  0  0  0  0  0  0
   -9.0274   -0.7270    2.0363 C   0  0  0  0  0  0  0  0  0  0  0  0
   -7.7562   -0.3696    2.3385 C   0  0  0  0  0  0  0  0  0  0  0  0
   -6.8891   -0.0130    1.3379 C   0  0  0  0  0  0  0  0  0  0  0  0
   -5.5882    0.3403    1.6534 C   0  0  0  0  0  0  0  0  0  0  0  0
   -4.6822    0.6995    0.6798 C   0  0  0  0  0  0  0  0  0  0  0  0
   -5.1008    0.7061   -0.6428 C   0  0  0  0  0  0  0  0  0  0  0  0
   -6.4199    0.3489   -0.9638 C   0  0  0  0  0  0  0  0  0  0  0  0
   -7.3014   -0.0135    0.0312 C   0  0  0  0  0  0  0  0  0  0  0  0
   -3.9811    1.3252   -3.7260 H   0  0  0  0  0  0  0  0  0  0  0  0
   -6.3262    0.6877   -4.2961 H   0  0  0  0  0  0  0  0  0  0  0  0
   -8.4781   -0.0198   -3.6105 H   0  0  0  0  0  0  0  0  0  0  0  0
  -10.0987   -0.6929   -1.7916 H   0  0  0  0  0  0  0  0  0  0  0  0
   -9.7023   -1.0039    2.8347 H   0  0  0  0  0  0  0  0  0  0  0  0
   -7.4011   -0.3586    3.3611 H   0  0  0  0  0  0  0  0  0  0  0  0
   -5.2532    0.3390    2.6884 H   0  0  0  0  0  0  0  0  0  0  0  0
   -3.6625    0.9536    0.9243 H   0  0  0  0  0  0  0  0  0  0  0  0
  -10.8269   -1.2262    0.5310 C   0  0  0  0  0  0  0  0  0  0  0  0
  -11.0453   -2.6136    0.5868 C   0  0  0  0  0  0  0  0  0  0  0  0
  -12.2991   -3.1350    0.4323 C   0  0  0  0  0  0  0  0  0  0  0  0
  -13.4121   -2.3149    0.2131 C   0  0  0  0  0  0  0  0  0  0  0  0
  -14.6509   -2.8936    0.0538 C   0  0  0  0  0  0  0  0  0  0  0  0
  -15.7042   -2.0487   -0.1733 C   0  0  0  0  0  0  0  0  0  0  0  0
  -15.5656   -0.6556   -0.2475 C   0  0  0  0  0  0  0  0  0  0  0  0
  -16.6333    0.1809   -0.4774 C   0  0  0  0  0  0  0  0  0  0  0  0
  -16.4673    1.5387   -0.5323 C   0  0  0  0  0  0  0  0  0  0  0  0
  -15.2190    2.0807   -0.3602 C   0  0  0  0  0  0  0  0  0  0  0  0
  -14.1224    1.2720   -0.1326 C   0  0  0  0  0  0  0  0  0  0  0  0
  -12.8667    1.7644    0.0330 C   0  0  0  0  0  0  0  0  0  0  0  0
  -11.7964    0.9417    0.2497 C   0  0  0  0  0  0  0  0  0  0  0  0
  -11.9227   -0.4346    0.3168 C   0  0  0  0  0  0  0  0  0  0  0  0
  -13.2165   -0.9515    0.1549 C   0  0  0  0  0  0  0  0  0  0  0  0
  -14.3080   -0.1113   -0.0787 C   0  0  0  0  0  0  0  0  0  0  0  0
  -10.2040   -3.2748    0.7530 H   0  0  0  0  0  0  0  0  0  0  0  0
  -12.4870   -4.1957    0.4725 H   0  0  0  0  0  0  0  0  0  0  0  0
  -14.8204   -3.9392    0.0979 H   0  0  0  0  0  0  0  0  0  0  0  0
  -16.7248   -2.4643   -0.2679 H   0  0  0  0  0  0  0  0  0  0  0  0
  -17.3448    2.2081   -0.7161 H   0  0  0  0  0  0  0  0  0  0  0  0
  -15.0610    3.1491   -0.3966 H   0  0  0  0  0  0  0  0  0  0  0  0
  -12.7732    2.8576   -0.0183 H   0  0  0  0  0  0  0  0  0  0  0  0
  -10.7992    1.3486    0.3773 H   0  0  0  0  0  0  0  0  0  0  0  0
  -17.9100   -0.4537   -0.8173 C   0  0  0  0  0  0  0  0  0  0  0  0
  -17.9699   -1.2845   -1.9239 C   0  0  0  0  0  0  0  0  0  0  0  0
  -19.1599   -1.8386   -2.3015 C   0  0  0  0  0  0  0  0  0  0  0  0
  -20.2996   -1.5812   -1.5950 C   0  0  0  0  0  0  0  0  0  0  0  0
  -21.4871   -2.1451   -1.9794 C   0  0  0  0  0  0  0  0  0  0  0  0
  -22.6723   -1.9028   -1.2741 C   0  0  0  0  0  0  0  0  0  0  0  0
  -22.5948   -1.0604   -0.1588 C   0  0  0  0  0  0  0  0  0  0  0  0
  -23.7717   -0.8332    0.5200 C   0  0  0  0  0  0  0  0  0  0  0  0
  -23.7524   -0.0086    1.6268 C   0  0  0  0  0  0  0  0  0  0  0  0
  -22.5565    0.5582    2.0146 C   0  0  0  0  0  0  0  0  0  0  0  0
  -21.3640    0.3235    1.3207 C   0  0  0  0  0  0  0  0  0  0  0  0
  -20.1956    0.9126    1.7520 C   0  0  0  0  0  0  0  0  0  0  0  0
  -19.0411    0.6592    1.0480 C   0  0  0  0  0  0  0  0  0  0  0  0
  -19.0163   -0.1692   -0.0844 C   0  0  0  0  0  0  0  0  0  0  0  0
  -20.2242   -0.7495   -0.4926 C   0  0  0  0  0  0  0  0  0  0  0  0
  -21.3943   -0.5004    0.2173 C   0  0  0  0  0  0  0  0  0  0  0  0
  -17.0377   -1.4984   -2.5013 H   0  0  0  0  0  0  0  0  0  0  0  0
  -19.1853   -2.4928   -3.1792 H   0  0  0  0  0  0  0  0  0  0  0  0
  -21.5337   -2.7915   -2.8351 H   0  0  0  0  0  0  0  0  0  0  0  0
  -23.6124   -2.3428   -1.5705 H   0  0  0  0  0  0  0  0  0  0  0  0
  -24.6736    0.1855    2.1818 H   0  0  0  0  0  0  0  0  0  0  0  0
  -22.5331    1.2095    2.8880 H   0  0  0  0  0  0  0  0  0  0  0  0
  -20.1498    1.5726    2.6276 H   0  0  0  0  0  0  0  0  0  0  0  0
  -18.0812    1.0989    1.3676 H   0  0  0  0  0  0  0  0  0  0  0  0
   25.2345    0.6684   -0.7475 H   0  0  0  0  0  0  0  0  0  0  0  0
  -24.7142   -1.2917    0.1992 H   0  0  0  0  0  0  0  0  0  0  0  0
  1  2  3  0
  2  3  1  0
  3  4  2  0
  4  5  1  0
  5  6  2  0
  6  7  1  0
  7  8  2  0
  8  3  1  0
  4  9  1  0
  6 10  1  0
  7 11  1  0
 12 13  2  0
 13 14  1  0
 14 15  2  0
 15 16  1  0
 16 17  2  0
 17 18  1  0
 18 19  2  0
 19 20  1  0
 20 21  2  0
 21 22  1  0
 22 23  2  0
 23 24  1  0
 24 25  2  0
 25 26  1  0
 26 27  2  0
 25 12  1  0
 26 15  1  0
 27 18  1  0
 27 22  1  0
 13 28  1  0
 14 29  1  0
 16 30  1  0
 17 31  1  0
 20 32  1  0
 21 33  1  0
 23 34  1  0
 24 35  1  0
 36 37  2  0
 37 38  1  0
 38 39  2  0
 39 40  1  0
 40 41  2  0
 41 42  1  0
 42 43  2  0
 43 44  1  0
 44 45  2  0
 45 46  1  0
 46 47  2  0
 47 48  1  0
 48 49  2  0
 49 50  1  0
 50 51  2  0
 49 36  1  0
 50 39  1  0
 51 42  1  0
 51 46  1  0
 37 52  1  0
 38 53  1  0
 40 54  1  0
 41 55  1  0
 44 56  1  0
 45 57  1  0
 47 58  1  0
 48 59  1  0
 60 61  2  0
 61 62  1  0
 62 63  2  0
 63 64  1  0
 64 65  2  0
 65 66  1  0
 66 67  2  0
 67 68  1  0
 68 69  2  0
 69 70  1  0
 70 71  2  0
 71 72  1  0
 72 73  2  0
 73 74  1  0
 74 75  2  0
 73 60  1  0
 74 63  1  0
 75 66  1  0
 75 70  1  0
 61 76  1  0
 62 77  1  0
 64 78  1  0
 65 79  1  0
 68 80  1  0
 69 81  1  0
 71 82  1  0
 72 83  1  0
 84 85  3  0
 85 86  1  0
 86 87  2  0
 87 88  1  0
 88 89  2  0
 89 90  1  0
 90 91  2  0
 91 86  1  0
 87 92  1  0
 89 93  1  0
 90 94  1  0
 95 96  2  0
 96 97  1  0
 97 98  2  0
 98 99  1  0
 99100  2  0
100101  1  0
101102  2  0
102103  1  0
103104  2  0
104105  1  0
105106  2  0
106107  1  0
107108  2  0
108109  1  0
109110  2  0
108 95  1  0
109 98  1  0
110101  1  0
110105  1  0
 96111  1  0
 97112  1  0
 99113  1  0
100114  1  0
103115  1  0
104116  1  0
106117  1  0
107118  1  0
119120  2  0
120121  1  0
121122  2  0
122123  1  0
123124  2  0
124125  1  0
125126  2  0
126127  1  0
127128  2  0
128129  1  0
129130  2  0
130131  1  0
131132  2  0
132133  1  0
133134  2  0
132119  1  0
133122  1  0
134125  1  0
134129  1  0
120135  1  0
121136  1  0
123137  1  0
124138  1  0
127139  1  0
128140  1  0
130141  1  0
131142  1  0
143144  2  0
144145  1  0
145146  2  0
146147  1  0
147148  2  0
148149  1  0
149150  2  0
150151  1  0
151152  2  0
152153  1  0
153154  2  0
154155  1  0
155156  2  0
156157  1  0
157158  2  0
156143  1  0
157146  1  0
158149  1  0
158153  1  0
144159  1  0
145160  1  0
147161  1  0
148162  1  0
151163  1  0
152164  1  0
154165  1  0
155166  1  0
  8 12  1  0
 19 36  1  0
 43 60  1  0
 67 88  1  0
 91 95  1  0
102119  1  0
126143  1  0
  5167  1  0
150168  1  0
M  END
