
     RDKit          3D

182209  0  0  0  0  0  0  0  0999 V2000
   27.6566    0.7318   -1.0287 O   0  0  0  0  0  0  0  0  0  0  0  0
   26.9392   -0.5823   -1.0924 S   0  0  0  0  0  0  0  0  0  0  0  0
   26.4641   -0.9248   -2.4504 O   0  0  0  0  0  0  0  0  0  0  0  0
   27.8551   -1.8500   -0.3362 C   0  0  0  0  0  0  0  0  0  0  0  0
   29.0858   -2.3895   -0.6739 C   0  0  0  0  0  0  0  0  0  0  0  0
   29.6304   -3.3973    0.0842 C   0  0  0  0  0  0  0  0  0  0  0  0
   28.9336   -3.8454    1.1664 C   0  0  0  0  0  0  0  0  0  0  0  0
   27.7468   -3.3006    1.4627 C   0  0  0  0  0  0  0  0  0  0  0  0
   27.1230   -2.2720    0.7419 C   0  0  0  0  0  0  0  0  0  0  0  0
   25.8833   -1.5921    0.9384 C   0  0  0  0  0  0  0  0  0  0  0  0
   24.9173   -1.8039    1.9534 C   0  0  0  0  0  0  0  0  0  0  0  0
   23.7814   -1.0580    1.9862 C   0  0  0  0  0  0  0  0  0  0  0  0
   23.4652   -0.0508    1.0621 C   0  0  0  0  0  0  0  0  0  0  0  0
   24.4056    0.1540    0.0800 C   0  0  0  0  0  0  0  0  0  0  0  0
   25.5733   -0.6134    0.0459 C   0  0  0  0  0  0  0  0  0  0  0  0
   29.6409   -2.0093   -1.5324 H   0  0  0  0  0  0  0  0  0  0  0  0
   29.3165   -4.6515    1.8094 H   0  0  0  0  0  0  0  0  0  0  0  0
   27.1885   -3.6768    2.3540 H   0  0  0  0  0  0  0  0  0  0  0  0
   25.1190   -2.5863    2.6957 H   0  0  0  0  0  0  0  0  0  0  0  0
   23.0333   -1.2191    2.7893 H   0  0  0  0  0  0  0  0  0  0  0  0
   24.2501    0.9054   -0.6707 H   0  0  0  0  0  0  0  0  0  0  0  0
   18.4613   -0.7502    3.7282 O   0  0  0  0  0  0  0  0  0  0  0  0
   18.3633   -0.4819    2.2752 S   0  0  0  0  0  0  0  0  0  0  0  0
   18.0938   -1.6977    1.4490 O   0  0  0  0  0  0  0  0  0  0  0  0
   19.8640    0.2989    1.7132 C   0  0  0  0  0  0  0  0  0  0  0  0
   21.1163   -0.2173    1.5907 C   0  0  0  0  0  0  0  0  0  0  0  0
   22.1692    0.5907    1.1518 C   0  0  0  0  0  0  0  0  0  0  0  0
   21.8740    1.8599    0.8690 C   0  0  0  0  0  0  0  0  0  0  0  0
   20.6074    2.4001    0.9847 C   0  0  0  0  0  0  0  0  0  0  0  0
   19.5237    1.5971    1.4299 C   0  0  0  0  0  0  0  0  0  0  0  0
   18.1207    1.9147    1.5453 C   0  0  0  0  0  0  0  0  0  0  0  0
   17.4520    3.1018    1.2454 C   0  0  0  0  0  0  0  0  0  0  0  0
   16.0793    3.2151    1.3133 C   0  0  0  0  0  0  0  0  0  0  0  0
   15.2833    2.1755    1.6805 C   0  0  0  0  0  0  0  0  0  0  0  0
   15.9716    0.9846    1.9888 C   0  0  0  0  0  0  0  0  0  0  0  0
   17.3247    0.8705    1.9223 C   0  0  0  0  0  0  0  0  0  0  0  0
   21.2735   -1.2433    1.8270 H   0  0  0  0  0  0  0  0  0  0  0  0
   22.6613    2.5305    0.5147 H   0  0  0  0  0  0  0  0  0  0  0  0
   20.4338    3.4266    0.7448 H   0  0  0  0  0  0  0  0  0  0  0  0
   18.0040    4.0013    0.9405 H   0  0  0  0  0  0  0  0  0  0  0  0
   15.5997    4.1700    1.0771 H   0  0  0  0  0  0  0  0  0  0  0  0
   15.3264    0.1470    2.2861 H   0  0  0  0  0  0  0  0  0  0  0  0
   13.8330    2.1007    1.7369 C   0  0  0  0  0  0  0  0  0  0  0  0
   13.0798    2.6568    2.7029 C   0  0  0  0  0  0  0  0  0  0  0  0
   11.7000    2.3709    2.7852 C   0  0  0  0  0  0  0  0  0  0  0  0
   11.0871    1.5240    1.8782 C   0  0  0  0  0  0  0  0  0  0  0  0
    9.7416    1.2250    1.9551 C   0  0  0  0  0  0  0  0  0  0  0  0
    9.1167    0.3791    1.0602 C   0  0  0  0  0  0  0  0  0  0  0  0
    9.8863   -0.1775    0.0569 C   0  0  0  0  0  0  0  0  0  0  0  0
    9.2908   -1.0148   -0.8782 C   0  0  0  0  0  0  0  0  0  0  0  0
   10.0416   -1.5741   -1.8935 C   0  0  0  0  0  0  0  0  0  0  0  0
   11.3883   -1.2749   -1.9535 C   0  0  0  0  0  0  0  0  0  0  0  0
   11.9721   -0.4422   -1.0280 C   0  0  0  0  0  0  0  0  0  0  0  0
   13.3291   -0.1537   -1.1084 C   0  0  0  0  0  0  0  0  0  0  0  0
   13.9529    0.6982   -0.1797 C   0  0  0  0  0  0  0  0  0  0  0  0
   13.1949    1.2463    0.8107 C   0  0  0  0  0  0  0  0  0  0  0  0
   11.8478    0.9575    0.8761 C   0  0  0  0  0  0  0  0  0  0  0  0
   11.2339    0.1163   -0.0203 C   0  0  0  0  0  0  0  0  0  0  0  0
   13.5088    3.3313    3.4289 H   0  0  0  0  0  0  0  0  0  0  0  0
   11.1523    2.8328    3.5793 H   0  0  0  0  0  0  0  0  0  0  0  0
    9.1467    1.6701    2.7400 H   0  0  0  0  0  0  0  0  0  0  0  0
    8.0609    0.1478    1.1595 H   0  0  0  0  0  0  0  0  0  0  0  0
    9.5706   -2.2433   -2.6165 H   0  0  0  0  0  0  0  0  0  0  0  0
   11.9758   -1.7135   -2.7329 H   0  0  0  0  0  0  0  0  0  0  0  0
   13.9094   -0.5917   -1.9001 H   0  0  0  0  0  0  0  0  0  0  0  0
   14.9970    0.8792   -0.3172 H   0  0  0  0  0  0  0  0  0  0  0  0
    7.8686   -1.3438   -0.8861 C   0  0  0  0  0  0  0  0  0  0  0  0
    7.4248   -2.5857   -0.5025 C   0  0  0  0  0  0  0  0  0  0  0  0
    6.0896   -2.8561   -0.5052 C   0  0  0  0  0  0  0  0  0  0  0  0
    5.1540   -1.8932   -0.8872 C   0  0  0  0  0  0  0  0  0  0  0  0
    3.8022   -2.1857   -0.8697 C   0  0  0  0  0  0  0  0  0  0  0  0
    2.8479   -1.2756   -1.2203 C   0  0  0  0  0  0  0  0  0  0  0  0
    3.2755   -0.0057   -1.6129 C   0  0  0  0  0  0  0  0  0  0  0  0
    2.3870    0.9563   -1.9601 C   0  0  0  0  0  0  0  0  0  0  0  0
    2.8440    2.2170   -2.3360 C   0  0  0  0  0  0  0  0  0  0  0  0
    4.1879    2.5120   -2.3683 C   0  0  0  0  0  0  0  0  0  0  0  0
    5.0899    1.5395   -2.0145 C   0  0  0  0  0  0  0  0  0  0  0  0
    6.4234    1.8309   -2.0348 C   0  0  0  0  0  0  0  0  0  0  0  0
    7.3649    0.8971   -1.6730 C   0  0  0  0  0  0  0  0  0  0  0  0
    6.9539   -0.3698   -1.2760 C   0  0  0  0  0  0  0  0  0  0  0  0
    5.5859   -0.6473   -1.2739 C   0  0  0  0  0  0  0  0  0  0  0  0
    4.6409    0.2903   -1.6362 C   0  0  0  0  0  0  0  0  0  0  0  0
    8.1809   -3.3242   -0.2187 H   0  0  0  0  0  0  0  0  0  0  0  0
    5.7434   -3.8339   -0.2161 H   0  0  0  0  0  0  0  0  0  0  0  0
    3.4628   -3.1805   -0.5743 H   0  0  0  0  0  0  0  0  0  0  0  0
    1.7791   -1.4837   -1.2099 H   0  0  0  0  0  0  0  0  0  0  0  0
    2.1144    2.9591   -2.5951 H   0  0  0  0  0  0  0  0  0  0  0  0
    4.5312    3.5131   -2.6828 H   0  0  0  0  0  0  0  0  0  0  0  0
    6.8204    2.8153   -2.3220 H   0  0  0  0  0  0  0  0  0  0  0  0
    8.4128    1.1057   -1.6984 H   0  0  0  0  0  0  0  0  0  0  0  0
   -2.4541    3.0302    0.3015 O   0  0  0  0  0  0  0  0  0  0  0  0
   -2.4207    1.5546    0.0800 S   0  0  0  0  0  0  0  0  0  0  0  0
   -2.3188    0.8086    1.3704 O   0  0  0  0  0  0  0  0  0  0  0  0
   -1.1895    1.0542   -1.0385 C   0  0  0  0  0  0  0  0  0  0  0  0
    0.1751    1.2073   -0.9696 C   0  0  0  0  0  0  0  0  0  0  0  0
    0.9749    0.7089   -1.9917 C   0  0  0  0  0  0  0  0  0  0  0  0
    0.3708    0.0683   -3.0499 C   0  0  0  0  0  0  0  0  0  0  0  0
   -0.9770   -0.0598   -3.0755 C   0  0  0  0  0  0  0  0  0  0  0  0
   -1.8269    0.4312   -2.0679 C   0  0  0  0  0  0  0  0  0  0  0  0
   -3.2645    0.4145   -1.9786 C   0  0  0  0  0  0  0  0  0  0  0  0
   -4.1863   -0.1127   -2.9084 C   0  0  0  0  0  0  0  0  0  0  0  0
   -5.5227    0.0025   -2.6637 C   0  0  0  0  0  0  0  0  0  0  0  0
   -6.0713    0.6205   -1.5357 C   0  0  0  0  0  0  0  0  0  0  0  0
   -5.1724    1.1258   -0.6484 C   0  0  0  0  0  0  0  0  0  0  0  0
   -3.7997    1.0190   -0.8746 C   0  0  0  0  0  0  0  0  0  0  0  0
    0.6615    1.7070   -0.1413 H   0  0  0  0  0  0  0  0  0  0  0  0
    1.0165   -0.3315   -3.8502 H   0  0  0  0  0  0  0  0  0  0  0  0
   -1.4019   -0.5689   -3.9331 H   0  0  0  0  0  0  0  0  0  0  0  0
   -3.8102   -0.5980   -3.7963 H   0  0  0  0  0  0  0  0  0  0  0  0
   -6.2043   -0.4220   -3.3955 H   0  0  0  0  0  0  0  0  0  0  0  0
   -5.5066    1.6192    0.2494 H   0  0  0  0  0  0  0  0  0  0  0  0
  -10.8703    1.9929    1.7366 O   0  0  0  0  0  0  0  0  0  0  0  0
  -10.8038    0.6426    1.0642 S   0  0  0  0  0  0  0  0  0  0  0  0
  -10.6181   -0.4852    2.0015 O   0  0  0  0  0  0  0  0  0  0  0  0
   -9.6374    0.6489   -0.2520 C   0  0  0  0  0  0  0  0  0  0  0  0
   -8.2359    0.6393   -0.2330 C   0  0  0  0  0  0  0  0  0  0  0  0
   -7.5286    0.6872   -1.4080 C   0  0  0  0  0  0  0  0  0  0  0  0
   -8.2909    0.7487   -2.5799 C   0  0  0  0  0  0  0  0  0  0  0  0
   -9.6533    0.7576   -2.6039 C   0  0  0  0  0  0  0  0  0  0  0  0
  -10.3873    0.7008   -1.3931 C   0  0  0  0  0  0  0  0  0  0  0  0
  -11.8166    0.5546   -1.2178 C   0  0  0  0  0  0  0  0  0  0  0  0
  -12.8196    0.4202   -2.2047 C   0  0  0  0  0  0  0  0  0  0  0  0
  -14.1119    0.1300   -1.8477 C   0  0  0  0  0  0  0  0  0  0  0  0
  -14.5131   -0.0545   -0.5208 C   0  0  0  0  0  0  0  0  0  0  0  0
  -13.5422    0.0824    0.4332 C   0  0  0  0  0  0  0  0  0  0  0  0
  -12.2294    0.3821    0.0659 C   0  0  0  0  0  0  0  0  0  0  0  0
   -7.7278    0.5904    0.6994 H   0  0  0  0  0  0  0  0  0  0  0  0
   -7.7173    0.8121   -3.5205 H   0  0  0  0  0  0  0  0  0  0  0  0
  -10.2156    0.8167   -3.5456 H   0  0  0  0  0  0  0  0  0  0  0  0
  -12.5810    0.5383   -3.2659 H   0  0  0  0  0  0  0  0  0  0  0  0
  -14.8485    0.0479   -2.6089 H   0  0  0  0  0  0  0  0  0  0  0  0
  -13.7569   -0.0308    1.4802 H   0  0  0  0  0  0  0  0  0  0  0  0
  -15.8706   -0.5603   -0.2652 C   0  0  0  0  0  0  0  0  0  0  0  0
  -16.0874   -1.9497   -0.4507 C   0  0  0  0  0  0  0  0  0  0  0  0
  -17.3050   -2.5165   -0.2403 C   0  0  0  0  0  0  0  0  0  0  0  0
  -18.3790   -1.7642    0.1576 C   0  0  0  0  0  0  0  0  0  0  0  0
  -19.6204   -2.3755    0.3619 C   0  0  0  0  0  0  0  0  0  0  0  0
  -20.6970   -1.6181    0.7581 C   0  0  0  0  0  0  0  0  0  0  0  0
  -20.5339   -0.2698    0.9412 C   0  0  0  0  0  0  0  0  0  0  0  0
  -21.6201    0.4966    1.3077 C   0  0  0  0  0  0  0  0  0  0  0  0
  -21.4847    1.8572    1.4608 C   0  0  0  0  0  0  0  0  0  0  0  0
  -20.2274    2.4368    1.2457 C   0  0  0  0  0  0  0  0  0  0  0  0
  -19.1495    1.6498    0.8856 C   0  0  0  0  0  0  0  0  0  0  0  0
  -17.9215    2.2707    0.6744 C   0  0  0  0  0  0  0  0  0  0  0  0
  -16.7877    1.5428    0.2939 C   0  0  0  0  0  0  0  0  0  0  0  0
  -16.9319    0.1812    0.1270 C   0  0  0  0  0  0  0  0  0  0  0  0
  -18.1883   -0.4189    0.3386 C   0  0  0  0  0  0  0  0  0  0  0  0
  -19.2911    0.2966    0.7297 C   0  0  0  0  0  0  0  0  0  0  0  0
  -15.2322   -2.5157   -0.7837 H   0  0  0  0  0  0  0  0  0  0  0  0
  -17.4374   -3.5900   -0.3874 H   0  0  0  0  0  0  0  0  0  0  0  0
  -19.7296   -3.4300    0.2263 H   0  0  0  0  0  0  0  0  0  0  0  0
  -21.6116   -2.1329    0.8931 H   0  0  0  0  0  0  0  0  0  0  0  0
  -22.3275    2.4726    1.7553 H   0  0  0  0  0  0  0  0  0  0  0  0
  -20.1198    3.5008    1.3588 H   0  0  0  0  0  0  0  0  0  0  0  0
  -17.8119    3.3367    0.8054 H   0  0  0  0  0  0  0  0  0  0  0  0
  -15.8205    1.9937    0.1311 H   0  0  0  0  0  0  0  0  0  0  0  0
  -22.8423   -0.2177    1.6455 C   0  0  0  0  0  0  0  0  0  0  0  0
  -22.8268   -1.0099    2.7984 C   0  0  0  0  0  0  0  0  0  0  0  0
  -23.9458   -1.6906    3.2048 C   0  0  0  0  0  0  0  0  0  0  0  0
  -25.1147   -1.5780    2.4478 C   0  0  0  0  0  0  0  0  0  0  0  0
  -26.2713   -2.2681    2.8142 C   0  0  0  0  0  0  0  0  0  0  0  0
  -27.4185   -2.1967    2.0934 C   0  0  0  0  0  0  0  0  0  0  0  0
  -27.4594   -1.4107    0.9470 C   0  0  0  0  0  0  0  0  0  0  0  0
  -28.5980   -1.3262    0.1797 C   0  0  0  0  0  0  0  0  0  0  0  0
  -28.6148   -0.5499   -0.9671 C   0  0  0  0  0  0  0  0  0  0  0  0
  -27.4905    0.1397   -1.3438 C   0  0  0  0  0  0  0  0  0  0  0  0
  -26.3396    0.0517   -0.5706 C   0  0  0  0  0  0  0  0  0  0  0  0
  -25.2204    0.7197   -0.9567 C   0  0  0  0  0  0  0  0  0  0  0  0
  -24.0575    0.6458   -0.2326 C   0  0  0  0  0  0  0  0  0  0  0  0
  -23.9967   -0.1277    0.9288 C   0  0  0  0  0  0  0  0  0  0  0  0
  -25.1655   -0.8005    1.3036 C   0  0  0  0  0  0  0  0  0  0  0  0
  -26.3285   -0.7226    0.5704 C   0  0  0  0  0  0  0  0  0  0  0  0
  -21.9174   -1.0870    3.3665 H   0  0  0  0  0  0  0  0  0  0  0  0
  -24.0019   -2.3071    4.0789 H   0  0  0  0  0  0  0  0  0  0  0  0
  -26.2607   -2.8846    3.7099 H   0  0  0  0  0  0  0  0  0  0  0  0
  -28.3453   -2.7216    2.3530 H   0  0  0  0  0  0  0  0  0  0  0  0
  -29.5315   -0.4798   -1.5836 H   0  0  0  0  0  0  0  0  0  0  0  0
  -27.4914    0.7510   -2.2524 H   0  0  0  0  0  0  0  0  0  0  0  0
  -25.2950    1.3196   -1.8690 H   0  0  0  0  0  0  0  0  0  0  0  0
  -23.1828    1.2004   -0.5820 H   0  0  0  0  0  0  0  0  0  0  0  0
   30.5809   -3.8380   -0.1576 H   0  0  0  0  0  0  0  0  0  0  0  0
  -29.4605   -1.8695    0.4740 H   0  0  0  0  0  0  0  0  0  0  0  0
  1  2  2  0
  2  3  2  0
  2  4  1  0
  4  5  2  0
  5  6  1  0
  6  7  2  0
  7  8  1  0
  8  9  2  0
  9 10  1  0
 10 11  2  0
 11 12  1  0
 12 13  2  0
 13 14  1  0
 14 15  2  0
 15  2  1  0
  9  4  1  0
 15 10  1  0
  5 16  1  0
  7 17  1  0
  8 18  1  0
 11 19  1  0
 12 20  1  0
 14 21  1  0
 22 23  2  0
 23 24  2  0
 23 25  1  0
 25 26  2  0
 26 27  1  0
 27 28  2  0
 28 29  1  0
 29 30  2  0
 30 31  1  0
 31 32  2  0
 32 33  1  0
 33 34  2  0
 34 35  1  0
 35 36  2  0
 36 23  1  0
 30 25  1  0
 36 31  1  0
 26 37  1  0
 28 38  1  0
 29 39  1  0
 32 40  1  0
 33 41  1  0
 35 42  1  0
 43 44  2  0
 44 45  1  0
 45 46  2  0
 46 47  1  0
 47 48  2  0
 48 49  1  0
 49 50  2  0
 50 51  1  0
 51 52  2  0
 52 53  1  0
 53 54  2  0
 54 55  1  0
 55 56  2  0
 56 57  1  0
 57 58  2  0
 56 43  1  0
 57 46  1  0
 58 49  1  0
 58 53  1  0
 44 59  1  0
 45 60  1  0
 47 61  1  0
 48 62  1  0
 51 63  1  0
 52 64  1  0
 54 65  1  0
 55 66  1  0
 67 68  2  0
 68 69  1  0
 69 70  2  0
 70 71  1  0
 71 72  2  0
 72 73  1  0
 73 74  2  0
 74 75  1  0
 75 76  2  0
 76 77  1  0
 77 78  2  0
 78 79  1  0
 79 80  2  0
 80 81  1  0
 81 82  2  0
 80 67  1  0
 81 70  1  0
 82 73  1  0
 82 77  1  0
 68 83  1  0
 69 84  1  0
 71 85  1  0
 72 86  1  0
 75 87  1  0
 76 88  1  0
 78 89  1  0
 79 90  1  0
 91 92  2  0
 92 93  2  0
 92 94  1  0
 94 95  2  0
 95 96  1  0
 96 97  2  0
 97 98  1  0
 98 99  2  0
 99100  1  0
100101  2  0
101102  1  0
102103  2  0
103104  1  0
104105  2  0
105 92  1  0
 99 94  1  0
105100  1  0
 95106  1  0
 97107  1  0
 98108  1  0
101109  1  0
102110  1  0
104111  1  0
112113  2  0
113114  2  0
113115  1  0
115116  2  0
116117  1  0
117118  2  0
118119  1  0
119120  2  0
120121  1  0
121122  2  0
122123  1  0
123124  2  0
124125  1  0
125126  2  0
126113  1  0
120115  1  0
126121  1  0
116127  1  0
118128  1  0
119129  1  0
122130  1  0
123131  1  0
125132  1  0
133134  2  0
134135  1  0
135136  2  0
136137  1  0
137138  2  0
138139  1  0
139140  2  0
140141  1  0
141142  2  0
142143  1  0
143144  2  0
144145  1  0
145146  2  0
146147  1  0
147148  2  0
146133  1  0
147136  1  0
148139  1  0
148143  1  0
134149  1  0
135150  1  0
137151  1  0
138152  1  0
141153  1  0
142154  1  0
144155  1  0
145156  1  0
157158  2  0
158159  1  0
159160  2  0
160161  1  0
161162  2  0
162163  1  0
163164  2  0
164165  1  0
165166  2  0
166167  1  0
167168  2  0
168169  1  0
169170  2  0
170171  1  0
171172  2  0
170157  1  0
171160  1  0
172163  1  0
172167  1  0
158173  1  0
159174  1  0
161175  1  0
162176  1  0
165177  1  0
166178  1  0
168179  1  0
169180  1  0
 13 27  1  0
 34 43  1  0
 50 67  1  0
 74 96  1  0
103117  1  0
124133  1  0
140157  1  0
  6181  1  0
164182  1  0
M  END
