182

O         27.65660        0.73180       -1.02870
S         26.93920       -0.58230       -1.09240
O         26.46410       -0.92480       -2.45040
C         27.85510       -1.85000       -0.33620
C         29.08580       -2.38950       -0.67390
C         29.63040       -3.39730        0.08420
C         28.93360       -3.84540        1.16640
C         27.74680       -3.30060        1.46270
C         27.12300       -2.27200        0.74190
C         25.88330       -1.59210        0.93840
C         24.91730       -1.80390        1.95340
C         23.78140       -1.05800        1.98620
C         23.46520       -0.05080        1.06210
C         24.40560        0.15400        0.08000
C         25.57330       -0.61340        0.04590
H         29.64090       -2.00930       -1.53240
H         29.31650       -4.65150        1.80940
H         27.18850       -3.67680        2.35400
H         25.11900       -2.58630        2.69570
H         23.03330       -1.21910        2.78930
H         24.25010        0.90540       -0.67070
O         18.46130       -0.75020        3.72820
S         18.36330       -0.48190        2.27520
O         18.09380       -1.69770        1.44900
C         19.86400        0.29890        1.71320
C         21.11630       -0.21730        1.59070
C         22.16920        0.59070        1.15180
C         21.87400        1.85990        0.86900
C         20.60740        2.40010        0.98470
C         19.52370        1.59710        1.42990
C         18.12070        1.91470        1.54530
C         17.45200        3.10180        1.24540
C         16.07930        3.21510        1.31330
C         15.28330        2.17550        1.68050
C         15.97160        0.98460        1.98880
C         17.32470        0.87050        1.92230
H         21.27350       -1.24330        1.82700
H         22.66130        2.53050        0.51470
H         20.43380        3.42660        0.74480
H         18.00400        4.00130        0.94050
H         15.59970        4.17000        1.07710
H         15.32640        0.14700        2.28610
C         13.83300        2.10070        1.73690
C         13.07980        2.65680        2.70290
C         11.70000        2.37090        2.78520
C         11.08710        1.52400        1.87820
C          9.74160        1.22500        1.95510
C          9.11670        0.37910        1.06020
C          9.88630       -0.17750        0.05690
C          9.29080       -1.01480       -0.87820
C         10.04160       -1.57410       -1.89350
C         11.38830       -1.27490       -1.95350
C         11.97210       -0.44220       -1.02800
C         13.32910       -0.15370       -1.10840
C         13.95290        0.69820       -0.17970
C         13.19490        1.24630        0.81070
C         11.84780        0.95750        0.87610
C         11.23390        0.11630       -0.02030
H         13.50880        3.33130        3.42890
H         11.15230        2.83280        3.57930
H          9.14670        1.67010        2.74000
H          8.06090        0.14780        1.15950
H          9.57060       -2.24330       -2.61650
H         11.97580       -1.71350       -2.73290
H         13.90940       -0.59170       -1.90010
H         14.99700        0.87920       -0.31720
C          7.86860       -1.34380       -0.88610
C          7.42480       -2.58570       -0.50250
C          6.08960       -2.85610       -0.50520
C          5.15400       -1.89320       -0.88720
C          3.80220       -2.18570       -0.86970
C          2.84790       -1.27560       -1.22030
C          3.27550       -0.00570       -1.61290
C          2.38700        0.95630       -1.96010
C          2.84400        2.21700       -2.33600
C          4.18790        2.51200       -2.36830
C          5.08990        1.53950       -2.01450
C          6.42340        1.83090       -2.03480
C          7.36490        0.89710       -1.67300
C          6.95390       -0.36980       -1.27600
C          5.58590       -0.64730       -1.27390
C          4.64090        0.29030       -1.63620
H          8.18090       -3.32420       -0.21870
H          5.74340       -3.83390       -0.21610
H          3.46280       -3.18050       -0.57430
H          1.77910       -1.48370       -1.20990
H          2.11440        2.95910       -2.59510
H          4.53120        3.51310       -2.68280
H          6.82040        2.81530       -2.32200
H          8.41280        1.10570       -1.69840
O         -2.45410        3.03020        0.30150
S         -2.42070        1.55460        0.08000
O         -2.31880        0.80860        1.37040
C         -1.18950        1.05420       -1.03850
C          0.17510        1.20730       -0.96960
C          0.97490        0.70890       -1.99170
C          0.37080        0.06830       -3.04990
C         -0.97700       -0.05980       -3.07550
C         -1.82690        0.43120       -2.06790
C         -3.26450        0.41450       -1.97860
C         -4.18630       -0.11270       -2.90840
C         -5.52270        0.00250       -2.66370
C         -6.07130        0.62050       -1.53570
C         -5.17240        1.12580       -0.64840
C         -3.79970        1.01900       -0.87460
H          0.66150        1.70700       -0.14130
H          1.01650       -0.33150       -3.85020
H         -1.40190       -0.56890       -3.93310
H         -3.81020       -0.59800       -3.79630
H         -6.20430       -0.42200       -3.39550
H         -5.50660        1.61920        0.24940
O        -10.87030        1.99290        1.73660
S        -10.80380        0.64260        1.06420
O        -10.61810       -0.48520        2.00150
C         -9.63740        0.64890       -0.25200
C         -8.23590        0.63930       -0.23300
C         -7.52860        0.68720       -1.40800
C         -8.29090        0.74870       -2.57990
C         -9.65330        0.75760       -2.60390
C        -10.38730        0.70080       -1.39310
C        -11.81660        0.55460       -1.21780
C        -12.81960        0.42020       -2.20470
C        -14.11190        0.13000       -1.84770
C        -14.51310       -0.05450       -0.52080
C        -13.54220        0.08240        0.43320
C        -12.22940        0.38210        0.06590
H         -7.72780        0.59040        0.69940
H         -7.71730        0.81210       -3.52050
H        -10.21560        0.81670       -3.54560
H        -12.58100        0.53830       -3.26590
H        -14.84850        0.04790       -2.60890
H        -13.75690       -0.03080        1.48020
C        -15.87060       -0.56030       -0.26520
C        -16.08740       -1.94970       -0.45070
C        -17.30500       -2.51650       -0.24030
C        -18.37900       -1.76420        0.15760
C        -19.62040       -2.37550        0.36190
C        -20.69700       -1.61810        0.75810
C        -20.53390       -0.26980        0.94120
C        -21.62010        0.49660        1.30770
C        -21.48470        1.85720        1.46080
C        -20.22740        2.43680        1.24570
C        -19.14950        1.64980        0.88560
C        -17.92150        2.27070        0.67440
C        -16.78770        1.54280        0.29390
C        -16.93190        0.18120        0.12700
C        -18.18830       -0.41890        0.33860
C        -19.29110        0.29660        0.72970
H        -15.23220       -2.51570       -0.78370
H        -17.43740       -3.59000       -0.38740
H        -19.72960       -3.43000        0.22630
H        -21.61160       -2.13290        0.89310
H        -22.32750        2.47260        1.75530
H        -20.11980        3.50080        1.35880
H        -17.81190        3.33670        0.80540
H        -15.82050        1.99370        0.13110
C        -22.84230       -0.21770        1.64550
C        -22.82680       -1.00990        2.79840
C        -23.94580       -1.69060        3.20480
C        -25.11470       -1.57800        2.44780
C        -26.27130       -2.26810        2.81420
C        -27.41850       -2.19670        2.09340
C        -27.45940       -1.41070        0.94700
C        -28.59800       -1.32620        0.17970
C        -28.61480       -0.54990       -0.96710
C        -27.49050        0.13970       -1.34380
C        -26.33960        0.05170       -0.57060
C        -25.22040        0.71970       -0.95670
C        -24.05750        0.64580       -0.23260
C        -23.99670       -0.12770        0.92880
C        -25.16550       -0.80050        1.30360
C        -26.32850       -0.72260        0.57040
H        -21.91740       -1.08700        3.36650
H        -24.00190       -2.30710        4.07890
H        -26.26070       -2.88460        3.70990
H        -28.34530       -2.72160        2.35300
H        -29.53150       -0.47980       -1.58360
H        -27.49140        0.75100       -2.25240
H        -25.29500        1.31960       -1.86900
H        -23.18280        1.20040       -0.58200
H         30.58090       -3.83800       -0.15760
H        -29.46050       -1.86950        0.47400
