
     RDKit          3D

 84 91  0  0  0  0  0  0  0  0999 V2000
  -12.7419    2.4673    3.0083 N   0  0  0  0  0  0  0  0  0  0  0  0
  -13.3587    1.8510    2.2168 C   0  0  0  0  0  0  0  0  0  0  0  0
  -14.1280    1.1232    1.2568 C   0  0  0  0  0  0  0  0  0  0  0  0
  -15.5165    1.1310    1.3768 C   0  0  0  0  0  0  0  0  0  0  0  0
  -16.2862    0.4518    0.4563 C   0  0  0  0  0  0  0  0  0  0  0  0
  -15.6572   -0.2227   -0.5670 C   0  0  0  0  0  0  0  0  0  0  0  0
  -14.2829   -0.2152   -0.6636 C   0  0  0  0  0  0  0  0  0  0  0  0
  -13.4940    0.4561    0.2444 C   0  0  0  0  0  0  0  0  0  0  0  0
  -16.0328    1.6519    2.1698 H   0  0  0  0  0  0  0  0  0  0  0  0
  -16.2601   -0.7515   -1.2828 H   0  0  0  0  0  0  0  0  0  0  0  0
  -13.8084   -0.7630   -1.4910 H   0  0  0  0  0  0  0  0  0  0  0  0
   -9.1814    1.1847   -3.6775 N   0  0  0  0  0  0  0  0  0  0  0  0
   -9.5556    0.9839   -2.6004 C   0  0  0  0  0  0  0  0  0  0  0  0
  -10.0618    0.7068   -1.2762 C   0  0  0  0  0  0  0  0  0  0  0  0
  -11.4576    0.7386   -1.0913 C   0  0  0  0  0  0  0  0  0  0  0  0
  -12.0516    0.4191    0.1060 C   0  0  0  0  0  0  0  0  0  0  0  0
  -11.2026    0.0610    1.1275 C   0  0  0  0  0  0  0  0  0  0  0  0
   -9.8478    0.0290    0.9562 C   0  0  0  0  0  0  0  0  0  0  0  0
   -9.2209    0.3573   -0.2696 C   0  0  0  0  0  0  0  0  0  0  0  0
  -12.0748    1.0241   -1.9203 H   0  0  0  0  0  0  0  0  0  0  0  0
  -11.6823   -0.2007    2.0696 H   0  0  0  0  0  0  0  0  0  0  0  0
   -9.1968   -0.2552    1.7727 H   0  0  0  0  0  0  0  0  0  0  0  0
   -7.7755    0.2502   -0.3415 C   0  0  0  0  0  0  0  0  0  0  0  0
   -6.9087    0.9842   -1.0778 C   0  0  0  0  0  0  0  0  0  0  0  0
   -5.5637    0.8340   -1.0018 N   0  0  0  0  0  0  0  0  0  0  0  0
   -5.0103   -0.0718   -0.1701 C   0  0  0  0  0  0  0  0  0  0  0  0
   -5.8693   -0.8294    0.5901 C   0  0  0  0  0  0  0  0  0  0  0  0
   -7.1955   -0.6675    0.5007 N   0  0  0  0  0  0  0  0  0  0  0  0
   -7.2345    1.7606   -1.7358 H   0  0  0  0  0  0  0  0  0  0  0  0
   -5.4253   -1.5641    1.2650 H   0  0  0  0  0  0  0  0  0  0  0  0
   -0.3284   -2.8696    2.2282 N   0  0  0  0  0  0  0  0  0  0  0  0
   -0.8335   -2.0990    1.5256 C   0  0  0  0  0  0  0  0  0  0  0  0
   -1.4750   -1.1327    0.6732 C   0  0  0  0  0  0  0  0  0  0  0  0
   -2.8743   -1.0890    0.6657 C   0  0  0  0  0  0  0  0  0  0  0  0
   -3.5482   -0.1905   -0.1143 C   0  0  0  0  0  0  0  0  0  0  0  0
   -2.7911    0.6769   -0.8980 C   0  0  0  0  0  0  0  0  0  0  0  0
   -1.4176    0.6325   -0.8891 C   0  0  0  0  0  0  0  0  0  0  0  0
   -0.7193   -0.2823   -0.0954 C   0  0  0  0  0  0  0  0  0  0  0  0
   -3.4445   -1.7729    1.2842 H   0  0  0  0  0  0  0  0  0  0  0  0
   -3.3133    1.4047   -1.5295 H   0  0  0  0  0  0  0  0  0  0  0  0
   -0.8152    1.3040   -1.4955 H   0  0  0  0  0  0  0  0  0  0  0  0
    4.1556   -3.6933   -0.7310 N   0  0  0  0  0  0  0  0  0  0  0  0
    3.5847   -2.6863   -0.5292 C   0  0  0  0  0  0  0  0  0  0  0  0
    2.8644   -1.4625   -0.3044 C   0  0  0  0  0  0  0  0  0  0  0  0
    1.4682   -1.4502   -0.3037 C   0  0  0  0  0  0  0  0  0  0  0  0
    0.7333   -0.3087   -0.1136 C   0  0  0  0  0  0  0  0  0  0  0  0
    1.4399    0.8603    0.0821 C   0  0  0  0  0  0  0  0  0  0  0  0
    2.8090    0.8974    0.0900 C   0  0  0  0  0  0  0  0  0  0  0  0
    3.5340   -0.2876   -0.1067 C   0  0  0  0  0  0  0  0  0  0  0  0
    0.9607   -2.3953   -0.4682 H   0  0  0  0  0  0  0  0  0  0  0  0
    0.8602    1.7774    0.2337 H   0  0  0  0  0  0  0  0  0  0  0  0
    3.3831    1.7953    0.2395 H   0  0  0  0  0  0  0  0  0  0  0  0
    8.1160    2.6331   -2.3471 N   0  0  0  0  0  0  0  0  0  0  0  0
    7.6621    1.8031   -1.6587 C   0  0  0  0  0  0  0  0  0  0  0  0
    7.0672    0.7913   -0.8251 C   0  0  0  0  0  0  0  0  0  0  0  0
    5.6690    0.6903   -0.8287 C   0  0  0  0  0  0  0  0  0  0  0  0
    4.9890   -0.2390   -0.0754 C   0  0  0  0  0  0  0  0  0  0  0  0
    5.7501   -1.0799    0.6958 C   0  0  0  0  0  0  0  0  0  0  0  0
    7.1432   -0.9832    0.7022 C   0  0  0  0  0  0  0  0  0  0  0  0
    7.8297   -0.0503   -0.0540 C   0  0  0  0  0  0  0  0  0  0  0  0
    5.0917    1.3740   -1.4541 H   0  0  0  0  0  0  0  0  0  0  0  0
    5.2978   -1.8291    1.3239 H   0  0  0  0  0  0  0  0  0  0  0  0
    7.6792   -1.6638    1.3244 H   0  0  0  0  0  0  0  0  0  0  0  0
    9.2854    0.0166   -0.0379 C   0  0  0  0  0  0  0  0  0  0  0  0
   10.0397   -0.9241    0.6325 C   0  0  0  0  0  0  0  0  0  0  0  0
   11.3857   -0.8821    0.6437 N   0  0  0  0  0  0  0  0  0  0  0  0
   12.0425    0.0806   -0.0003 C   0  0  0  0  0  0  0  0  0  0  0  0
   11.3230    1.0299   -0.6762 C   0  0  0  0  0  0  0  0  0  0  0  0
    9.9681    0.9762   -0.6793 N   0  0  0  0  0  0  0  0  0  0  0  0
    9.5843   -1.7370    1.1747 H   0  0  0  0  0  0  0  0  0  0  0  0
   11.8398    1.8356   -1.2153 H   0  0  0  0  0  0  0  0  0  0  0  0
   16.7332   -2.9154    2.0382 N   0  0  0  0  0  0  0  0  0  0  0  0
   16.2044   -2.0483    1.4847 C   0  0  0  0  0  0  0  0  0  0  0  0
   15.5460   -0.9691    0.7670 C   0  0  0  0  0  0  0  0  0  0  0  0
   14.1769   -0.9407    0.7135 C   0  0  0  0  0  0  0  0  0  0  0  0
   13.5239    0.0819    0.0324 C   0  0  0  0  0  0  0  0  0  0  0  0
   14.2881    1.0439   -0.5728 C   0  0  0  0  0  0  0  0  0  0  0  0
   15.6666    0.9886   -0.5015 C   0  0  0  0  0  0  0  0  0  0  0  0
   16.3297   -0.0114    0.1651 C   0  0  0  0  0  0  0  0  0  0  0  0
   13.5584   -1.7095    1.1971 H   0  0  0  0  0  0  0  0  0  0  0  0
   13.8049    1.8585   -1.1136 H   0  0  0  0  0  0  0  0  0  0  0  0
   16.2217    1.7871   -1.0042 H   0  0  0  0  0  0  0  0  0  0  0  0
  -17.3744    0.4607    0.5562 H   0  0  0  0  0  0  0  0  0  0  0  0
   17.4076   -0.0215    0.1991 H   0  0  0  0  0  0  0  0  0  0  0  0
  1  2  3  0
  2  3  1  0
  3  4  2  0
  4  5  1  0
  5  6  2  0
  6  7  1  0
  7  8  2  0
  8  3  1  0
  4  9  1  0
  6 10  1  0
  7 11  1  0
 12 13  3  0
 13 14  1  0
 14 15  2  0
 15 16  1  0
 16 17  2  0
 17 18  1  0
 18 19  2  0
 19 14  1  0
 15 20  1  0
 17 21  1  0
 18 22  1  0
 23 24  2  0
 24 25  1  0
 25 26  2  0
 26 27  1  0
 27 28  2  0
 28 23  1  0
 24 29  1  0
 27 30  1  0
 31 32  3  0
 32 33  1  0
 33 34  2  0
 34 35  1  0
 35 36  2  0
 36 37  1  0
 37 38  2  0
 38 33  1  0
 34 39  1  0
 36 40  1  0
 37 41  1  0
 42 43  3  0
 43 44  1  0
 44 45  2  0
 45 46  1  0
 46 47  2  0
 47 48  1  0
 48 49  2  0
 49 44  1  0
 45 50  1  0
 47 51  1  0
 48 52  1  0
 53 54  3  0
 54 55  1  0
 55 56  2  0
 56 57  1  0
 57 58  2  0
 58 59  1  0
 59 60  2  0
 60 55  1  0
 56 61  1  0
 58 62  1  0
 59 63  1  0
 64 65  2  0
 65 66  1  0
 66 67  2  0
 67 68  1  0
 68 69  2  0
 69 64  1  0
 65 70  1  0
 68 71  1  0
 72 73  3  0
 73 74  1  0
 74 75  2  0
 75 76  1  0
 76 77  2  0
 77 78  1  0
 78 79  2  0
 79 74  1  0
 75 80  1  0
 77 81  1  0
 78 82  1  0
  8 16  1  0
 19 23  1  0
 26 35  1  0
 38 46  1  0
 49 57  1  0
 60 64  1  0
 67 76  1  0
  5 83  1  0
 79 84  1  0
M  END
