124

O        -20.11150       -2.33770        3.46100
S        -20.11370       -0.84910        3.47210
O        -19.81520       -0.29200        4.83800
C        -21.57580       -0.14910        2.83180
C        -22.89820       -0.28480        3.22610
C        -23.90240        0.37550        2.55980
C        -23.54160        1.17400        1.48900
C        -22.24010        1.28680        1.12710
C        -21.18010        0.63100        1.77670
C        -19.78470        0.62220        1.47950
C        -19.10850        1.29590        0.44180
C        -17.76000        1.13980        0.28320
C        -16.98330        0.33500        1.10440
C        -17.62840       -0.31390        2.10610
C        -19.00470       -0.16600        2.28200
H        -23.13370       -0.91950        4.07140
H        -24.32740        1.70920        0.94190
H        -22.00430        1.92950        0.27050
H        -19.65490        1.95340       -0.25050
H        -17.25490        1.65730       -0.51770
H        -17.09930       -0.96200        2.79410
N        -12.43670        3.47430       -0.98890
C        -12.92830        2.48840       -0.56410
C        -13.55190        1.30950       -0.03980
C        -14.90370        1.31650        0.31330
C        -15.54140        0.21130        0.83980
C        -14.80930       -0.92840        1.02170
C        -13.45760       -0.95330        0.67400
C        -12.82380        0.16890        0.13950
H        -15.43720        2.21940        0.16880
H        -15.29050       -1.80030        1.43650
H        -12.90000       -1.86620        0.83220
O         -7.35330       -0.13990        2.08620
S         -7.64710       -1.02120        0.91900
O         -7.75680       -2.46900        1.29350
C         -9.10680       -0.46750        0.10740
C        -10.42380       -0.37640        0.56210
C        -11.41400        0.08440       -0.27270
C        -11.02950        0.44140       -1.55470
C         -9.73510        0.35100       -1.99830
C         -8.71180       -0.11750       -1.15770
C         -7.31750       -0.26950       -1.43210
C         -6.59150        0.01790       -2.60770
C         -5.25550       -0.15530       -2.71430
C         -4.51370       -0.63140       -1.65890
C         -5.16980       -0.92720       -0.49420
C         -6.54880       -0.74100       -0.40670
H        -10.64500       -0.66760        1.56540
H        -11.81360        0.80020       -2.23630
H         -9.50450        0.65630       -3.02920
H         -7.13730        0.40030       -3.48000
H         -4.74280        0.07990       -3.63230
H         -4.63770       -1.30020        0.35590
C         -3.07080       -0.74820       -1.81890
C         -2.22850       -1.14740       -0.80440
N         -0.88290       -1.17380       -1.01050
C         -0.31070       -0.82650       -2.17460
C         -1.16240       -0.43500       -3.17670
N         -2.50240       -0.40170       -2.99250
H         -2.65000       -1.43690        0.14620
H         -0.73690       -0.13490       -4.14060
O          4.62490       -2.71500        0.31330
S          4.52630       -1.27940       -0.09290
O          4.41360       -0.34000        1.07470
C          3.31900       -0.97840       -1.30370
C          1.92720       -1.06630       -1.22240
C          1.14890       -0.78690       -2.32750
C          1.78660       -0.43690       -3.46980
C          3.13670       -0.35520       -3.53900
C          3.97550       -0.62420       -2.44060
C          5.41530       -0.52180       -2.31240
C          6.35980       -0.11370       -3.27490
C          7.68490       -0.00750       -2.95010
C          8.19140       -0.27690       -1.71110
C          7.26020       -0.68610       -0.75180
C          5.91830       -0.79440       -1.08140
H          1.46420       -1.35280       -0.29530
H          1.20960       -0.21550       -4.36420
H          3.58400       -0.07300       -4.48030
H          6.01620        0.11580       -4.28400
H          8.41510        0.31220       -3.71750
H          7.59000       -0.91410        0.23230
N         13.01100        3.10890       -2.60330
C         12.41800        2.21730       -2.14990
C         11.67600        1.13560       -1.56540
C         10.33320        0.93180       -1.89970
C          9.59130       -0.09410       -1.35190
C         10.22700       -0.92320       -0.45390
C         11.54970       -0.72590       -0.12230
C         12.29960        0.30550       -0.66970
H          9.84370        1.58800       -2.60770
H          9.63270       -1.72290       -0.03960
H         12.05950       -1.37460        0.58260
O         17.05610       -2.68990        0.79470
S         17.31050       -1.41950        0.05670
O         17.72820       -1.67020       -1.36340
C         15.91640       -0.34280        0.09510
C         14.61300       -0.52400       -0.36590
C         13.69420        0.48970       -0.24080
C         14.12070        1.65380        0.34470
C         15.40500        1.83420        0.80060
C         16.36200        0.80750        0.68400
C         17.72640        0.79680        1.12670
C         18.44060        1.78410        1.80990
C         19.72920        1.60250        2.22290
C         20.40400        0.43910        1.99170
C         19.69800       -0.54520        1.30900
C         18.40550       -0.36200        0.89700
H         14.33480       -1.45950       -0.81180
H         13.38370        2.44730        0.43970
H         15.66990        2.79380        1.25700
H         17.98480        2.76480        2.04570
H         20.24730        2.40650        2.75550
H         20.23820       -1.47450        1.12010
C         21.75970        0.21450        2.47490
C         22.43010        1.05300        3.31800
N         23.68400        0.74380        3.75730
C         24.32130       -0.37860        3.39580
C         23.63770       -1.23590        2.53290
N         22.40670       -0.93470        2.10020
H         21.99030        1.96730        3.64900
H         24.14800       -2.15760        2.23320
H        -24.96400        0.30520        2.82080
H         25.31180       -0.60070        3.76440
