
     RDKit          3D

144163  0  0  0  0  0  0  0  0999 V2000
  -25.2665    0.5972   -2.1005 O   0  0  0  0  0  0  0  0  0  0  0  0
  -24.7151   -0.6570   -1.5033 S   0  0  0  0  0  0  0  0  0  0  0  0
  -24.1760   -1.6169   -2.5378 O   0  0  0  0  0  0  0  0  0  0  0  0
  -25.9286   -1.4456   -0.4947 C   0  0  0  0  0  0  0  0  0  0  0  0
  -27.1608   -1.9914   -0.8151 C   0  0  0  0  0  0  0  0  0  0  0  0
  -27.9168   -2.5582    0.1713 C   0  0  0  0  0  0  0  0  0  0  0  0
  -27.4398   -2.5706    1.4619 C   0  0  0  0  0  0  0  0  0  0  0  0
  -26.2223   -2.0272    1.7572 C   0  0  0  0  0  0  0  0  0  0  0  0
  -25.4065   -1.4368    0.7794 C   0  0  0  0  0  0  0  0  0  0  0  0
  -24.1030   -0.8624    0.8947 C   0  0  0  0  0  0  0  0  0  0  0  0
  -23.3115   -0.7328    2.0525 C   0  0  0  0  0  0  0  0  0  0  0  0
  -22.0475   -0.1771    1.9995 C   0  0  0  0  0  0  0  0  0  0  0  0
  -21.4940    0.2763    0.8267 C   0  0  0  0  0  0  0  0  0  0  0  0
  -22.2809    0.1477   -0.2973 C   0  0  0  0  0  0  0  0  0  0  0  0
  -23.5417   -0.4042   -0.2537 C   0  0  0  0  0  0  0  0  0  0  0  0
  -27.4711   -1.9282   -1.8611 H   0  0  0  0  0  0  0  0  0  0  0  0
  -28.0629   -3.0222    2.2060 H   0  0  0  0  0  0  0  0  0  0  0  0
  -25.8899   -2.0718    2.8014 H   0  0  0  0  0  0  0  0  0  0  0  0
  -23.6495   -1.0614    3.0180 H   0  0  0  0  0  0  0  0  0  0  0  0
  -21.4487   -0.0750    2.9003 H   0  0  0  0  0  0  0  0  0  0  0  0
  -21.8759    0.4828   -1.2408 H   0  0  0  0  0  0  0  0  0  0  0  0
  -16.4700    0.8436    3.8761 O   0  0  0  0  0  0  0  0  0  0  0  0
  -16.5023    0.1618    2.5374 S   0  0  0  0  0  0  0  0  0  0  0  0
  -16.3137   -1.3208    2.6280 O   0  0  0  0  0  0  0  0  0  0  0  0
  -17.8716    0.6130    1.5689 C   0  0  0  0  0  0  0  0  0  0  0  0
  -19.1961    0.2478    1.6542 C   0  0  0  0  0  0  0  0  0  0  0  0
  -20.1402    0.7647    0.7993 C   0  0  0  0  0  0  0  0  0  0  0  0
  -19.6945    1.6635   -0.1324 C   0  0  0  0  0  0  0  0  0  0  0  0
  -18.3820    2.0417   -0.2375 C   0  0  0  0  0  0  0  0  0  0  0  0
  -17.4076    1.5060    0.6340 C   0  0  0  0  0  0  0  0  0  0  0  0
  -15.9663    1.6517    0.6019 C   0  0  0  0  0  0  0  0  0  0  0  0
  -15.1751    2.3610   -0.3291 C   0  0  0  0  0  0  0  0  0  0  0  0
  -13.8139    2.2876   -0.3345 C   0  0  0  0  0  0  0  0  0  0  0  0
  -13.1351    1.5161    0.5651 C   0  0  0  0  0  0  0  0  0  0  0  0
  -13.9058    0.8216    1.4919 C   0  0  0  0  0  0  0  0  0  0  0  0
  -15.2753    0.8954    1.5005 C   0  0  0  0  0  0  0  0  0  0  0  0
  -19.4971   -0.4710    2.4032 H   0  0  0  0  0  0  0  0  0  0  0  0
  -20.4031    2.1137   -0.8144 H   0  0  0  0  0  0  0  0  0  0  0  0
  -18.1120    2.7663   -0.9998 H   0  0  0  0  0  0  0  0  0  0  0  0
  -15.6433    2.9882   -1.0763 H   0  0  0  0  0  0  0  0  0  0  0  0
  -13.2404    2.8552   -1.0539 H   0  0  0  0  0  0  0  0  0  0  0  0
  -13.4158    0.2165    2.2220 H   0  0  0  0  0  0  0  0  0  0  0  0
  -11.6963    1.2713    0.4903 C   0  0  0  0  0  0  0  0  0  0  0  0
  -10.9051    1.5501   -0.6033 C   0  0  0  0  0  0  0  0  0  0  0  0
   -9.6123    1.1924   -0.6576 N   0  0  0  0  0  0  0  0  0  0  0  0
   -9.0088    0.5282    0.3787 C   0  0  0  0  0  0  0  0  0  0  0  0
   -9.7970    0.2565    1.4639 C   0  0  0  0  0  0  0  0  0  0  0  0
  -11.0987    0.6192    1.5111 N   0  0  0  0  0  0  0  0  0  0  0  0
  -11.3518    2.0869   -1.4561 H   0  0  0  0  0  0  0  0  0  0  0  0
   -9.3332   -0.2699    2.3154 H   0  0  0  0  0  0  0  0  0  0  0  0
   -4.8447   -1.6040   -3.2060 O   0  0  0  0  0  0  0  0  0  0  0  0
   -4.5412   -0.3106   -2.4604 S   0  0  0  0  0  0  0  0  0  0  0  0
   -4.5052    0.8537   -3.3549 O   0  0  0  0  0  0  0  0  0  0  0  0
   -5.6087   -0.1831   -1.0946 C   0  0  0  0  0  0  0  0  0  0  0  0
   -6.9365    0.1772   -0.9881 C   0  0  0  0  0  0  0  0  0  0  0  0
   -7.6107    0.1037    0.2370 C   0  0  0  0  0  0  0  0  0  0  0  0
   -6.9091   -0.3304    1.2980 C   0  0  0  0  0  0  0  0  0  0  0  0
   -5.5811   -0.6869    1.1806 C   0  0  0  0  0  0  0  0  0  0  0  0
   -4.8910   -0.6206   -0.0093 C   0  0  0  0  0  0  0  0  0  0  0  0
   -3.4712   -0.8023   -0.2624 C   0  0  0  0  0  0  0  0  0  0  0  0
   -2.4558   -1.0624    0.6771 C   0  0  0  0  0  0  0  0  0  0  0  0
   -1.1429   -1.0076    0.2793 C   0  0  0  0  0  0  0  0  0  0  0  0
   -0.7315   -0.7120   -1.0058 C   0  0  0  0  0  0  0  0  0  0  0  0
   -1.7148   -0.4685   -1.9261 C   0  0  0  0  0  0  0  0  0  0  0  0
   -3.0558   -0.5206   -1.5251 C   0  0  0  0  0  0  0  0  0  0  0  0
   -7.5117    0.5064   -1.8204 H   0  0  0  0  0  0  0  0  0  0  0  0
   -7.3691   -0.4235    2.3013 H   0  0  0  0  0  0  0  0  0  0  0  0
   -5.1231   -1.0386    2.1178 H   0  0  0  0  0  0  0  0  0  0  0  0
   -2.7011   -1.3154    1.7067 H   0  0  0  0  0  0  0  0  0  0  0  0
   -0.3412   -1.1996    0.9947 H   0  0  0  0  0  0  0  0  0  0  0  0
   -1.4634   -0.2361   -2.9335 H   0  0  0  0  0  0  0  0  0  0  0  0
    4.5388   -3.1535   -0.2827 O   0  0  0  0  0  0  0  0  0  0  0  0
    4.4003   -1.7156    0.0791 S   0  0  0  0  0  0  0  0  0  0  0  0
    4.3329   -1.4738    1.5534 O   0  0  0  0  0  0  0  0  0  0  0  0
    3.0005   -1.0050   -0.7319 C   0  0  0  0  0  0  0  0  0  0  0  0
    1.6359   -1.2391   -0.5427 C   0  0  0  0  0  0  0  0  0  0  0  0
    0.7068   -0.5451   -1.2810 C   0  0  0  0  0  0  0  0  0  0  0  0
    1.1956    0.3630   -2.1953 C   0  0  0  0  0  0  0  0  0  0  0  0
    2.5425    0.5941   -2.3827 C   0  0  0  0  0  0  0  0  0  0  0  0
    3.5030   -0.1094   -1.6253 C   0  0  0  0  0  0  0  0  0  0  0  0
    4.9325    0.0453   -1.6110 C   0  0  0  0  0  0  0  0  0  0  0  0
    5.7521    0.9077   -2.3505 C   0  0  0  0  0  0  0  0  0  0  0  0
    7.0948    0.9766   -2.1804 C   0  0  0  0  0  0  0  0  0  0  0  0
    7.7455    0.1893   -1.2493 C   0  0  0  0  0  0  0  0  0  0  0  0
    6.9622   -0.6670   -0.5116 C   0  0  0  0  0  0  0  0  0  0  0  0
    5.5964   -0.7244   -0.7032 C   0  0  0  0  0  0  0  0  0  0  0  0
    1.3462   -1.9728    0.1874 H   0  0  0  0  0  0  0  0  0  0  0  0
    0.4659    0.8966   -2.7731 H   0  0  0  0  0  0  0  0  0  0  0  0
    2.8767    1.3149   -3.1254 H   0  0  0  0  0  0  0  0  0  0  0  0
    5.3058    1.5561   -3.1026 H   0  0  0  0  0  0  0  0  0  0  0  0
    7.6678    1.6760   -2.7983 H   0  0  0  0  0  0  0  0  0  0  0  0
    7.4404   -1.2929    0.2245 H   0  0  0  0  0  0  0  0  0  0  0  0
   12.9005   -2.6116   -0.9982 O   0  0  0  0  0  0  0  0  0  0  0  0
   12.7027   -1.4243   -0.1079 S   0  0  0  0  0  0  0  0  0  0  0  0
   12.5474   -1.8311    1.3325 O   0  0  0  0  0  0  0  0  0  0  0  0
   11.3865   -0.3994   -0.6038 C   0  0  0  0  0  0  0  0  0  0  0  0
   10.0272   -0.6559   -0.7201 C   0  0  0  0  0  0  0  0  0  0  0  0
    9.1752    0.3468   -1.1009 C   0  0  0  0  0  0  0  0  0  0  0  0
    9.7084    1.5807   -1.3523 C   0  0  0  0  0  0  0  0  0  0  0  0
   11.0602    1.8706   -1.2481 C   0  0  0  0  0  0  0  0  0  0  0  0
   11.9419    0.8412   -0.8586 C   0  0  0  0  0  0  0  0  0  0  0  0
   13.3631    0.8960   -0.6888 C   0  0  0  0  0  0  0  0  0  0  0  0
   14.2289    2.0044   -0.9210 C   0  0  0  0  0  0  0  0  0  0  0  0
   15.5780    1.8825   -0.7546 C   0  0  0  0  0  0  0  0  0  0  0  0
   16.1618    0.7040   -0.3562 C   0  0  0  0  0  0  0  0  0  0  0  0
   15.3440   -0.3554   -0.1310 C   0  0  0  0  0  0  0  0  0  0  0  0
   13.9903   -0.2366   -0.2999 C   0  0  0  0  0  0  0  0  0  0  0  0
    9.6383   -1.6267   -0.5069 H   0  0  0  0  0  0  0  0  0  0  0  0
    9.0895    2.4286   -1.6513 H   0  0  0  0  0  0  0  0  0  0  0  0
   11.3927    2.8784   -1.4612 H   0  0  0  0  0  0  0  0  0  0  0  0
   13.8373    2.9417   -1.2345 H   0  0  0  0  0  0  0  0  0  0  0  0
   16.1881    2.7663   -0.9340 H   0  0  0  0  0  0  0  0  0  0  0  0
   15.7233   -1.3268    0.1855 H   0  0  0  0  0  0  0  0  0  0  0  0
   17.6079    0.5662   -0.2233 C   0  0  0  0  0  0  0  0  0  0  0  0
   18.4662    1.4860   -0.8232 C   0  0  0  0  0  0  0  0  0  0  0  0
   19.8101    1.3643   -0.7465 N   0  0  0  0  0  0  0  0  0  0  0  0
   20.3831    0.3210   -0.0690 C   0  0  0  0  0  0  0  0  0  0  0  0
   19.5299   -0.5722    0.5092 C   0  0  0  0  0  0  0  0  0  0  0  0
   18.1685   -0.4550    0.4352 N   0  0  0  0  0  0  0  0  0  0  0  0
   18.0124    2.2980   -1.3667 H   0  0  0  0  0  0  0  0  0  0  0  0
   19.9747   -1.4158    1.0513 H   0  0  0  0  0  0  0  0  0  0  0  0
   24.9464   -3.1589    1.2550 O   0  0  0  0  0  0  0  0  0  0  0  0
   25.0877   -1.7167    1.5532 S   0  0  0  0  0  0  0  0  0  0  0  0
   25.0327   -1.4031    3.0252 O   0  0  0  0  0  0  0  0  0  0  0  0
   23.9346   -0.7140    0.6921 C   0  0  0  0  0  0  0  0  0  0  0  0
   22.5433   -0.6763    0.7144 C   0  0  0  0  0  0  0  0  0  0  0  0
   21.8349    0.2238   -0.0163 C   0  0  0  0  0  0  0  0  0  0  0  0
   22.5998    1.1084   -0.7920 C   0  0  0  0  0  0  0  0  0  0  0  0
   23.9605    1.0856   -0.8262 C   0  0  0  0  0  0  0  0  0  0  0  0
   24.6872    0.1445   -0.0617 C   0  0  0  0  0  0  0  0  0  0  0  0
   26.1050   -0.0319    0.0123 C   0  0  0  0  0  0  0  0  0  0  0  0
   27.1140    0.6666   -0.6677 C   0  0  0  0  0  0  0  0  0  0  0  0
   28.4317    0.3656   -0.5305 C   0  0  0  0  0  0  0  0  0  0  0  0
   28.8355   -0.6639    0.3089 C   0  0  0  0  0  0  0  0  0  0  0  0
   27.8852   -1.3792    0.9981 C   0  0  0  0  0  0  0  0  0  0  0  0
   26.5377   -1.0379    0.8283 C   0  0  0  0  0  0  0  0  0  0  0  0
   22.0450   -1.3985    1.3393 H   0  0  0  0  0  0  0  0  0  0  0  0
   22.0323    1.8366   -1.3899 H   0  0  0  0  0  0  0  0  0  0  0  0
   24.4877    1.8220   -1.4550 H   0  0  0  0  0  0  0  0  0  0  0  0
   26.8797    1.4921   -1.3537 H   0  0  0  0  0  0  0  0  0  0  0  0
   29.2233    0.9022   -1.0519 H   0  0  0  0  0  0  0  0  0  0  0  0
   28.0965   -2.1870    1.6724 H   0  0  0  0  0  0  0  0  0  0  0  0
  -28.9057   -2.9923   -0.0860 H   0  0  0  0  0  0  0  0  0  0  0  0
   29.9077   -0.9166    0.4170 H   0  0  0  0  0  0  0  0  0  0  0  0
  1  2  2  0
  2  3  2  0
  2  4  1  0
  4  5  2  0
  5  6  1  0
  6  7  2  0
  7  8  1  0
  8  9  2  0
  9 10  1  0
 10 11  2  0
 11 12  1  0
 12 13  2  0
 13 14  1  0
 14 15  2  0
 15  2  1  0
  9  4  1  0
 15 10  1  0
  5 16  1  0
  7 17  1  0
  8 18  1  0
 11 19  1  0
 12 20  1  0
 14 21  1  0
 22 23  2  0
 23 24  2  0
 23 25  1  0
 25 26  2  0
 26 27  1  0
 27 28  2  0
 28 29  1  0
 29 30  2  0
 30 31  1  0
 31 32  2  0
 32 33  1  0
 33 34  2  0
 34 35  1  0
 35 36  2  0
 36 23  1  0
 30 25  1  0
 36 31  1  0
 26 37  1  0
 28 38  1  0
 29 39  1  0
 32 40  1  0
 33 41  1  0
 35 42  1  0
 43 44  2  0
 44 45  1  0
 45 46  2  0
 46 47  1  0
 47 48  2  0
 48 43  1  0
 44 49  1  0
 47 50  1  0
 51 52  2  0
 52 53  2  0
 52 54  1  0
 54 55  2  0
 55 56  1  0
 56 57  2  0
 57 58  1  0
 58 59  2  0
 59 60  1  0
 60 61  2  0
 61 62  1  0
 62 63  2  0
 63 64  1  0
 64 65  2  0
 65 52  1  0
 59 54  1  0
 65 60  1  0
 55 66  1  0
 57 67  1  0
 58 68  1  0
 61 69  1  0
 62 70  1  0
 64 71  1  0
 72 73  2  0
 73 74  2  0
 73 75  1  0
 75 76  2  0
 76 77  1  0
 77 78  2  0
 78 79  1  0
 79 80  2  0
 80 81  1  0
 81 82  2  0
 82 83  1  0
 83 84  2  0
 84 85  1  0
 85 86  2  0
 86 73  1  0
 80 75  1  0
 86 81  1  0
 76 87  1  0
 78 88  1  0
 79 89  1  0
 82 90  1  0
 83 91  1  0
 85 92  1  0
 93 94  2  0
 94 95  2  0
 94 96  1  0
 96 97  2  0
 97 98  1  0
 98 99  2  0
 99100  1  0
100101  2  0
101102  1  0
102103  2  0
103104  1  0
104105  2  0
105106  1  0
106107  2  0
107 94  1  0
101 96  1  0
107102  1  0
 97108  1  0
 99109  1  0
100110  1  0
103111  1  0
104112  1  0
106113  1  0
114115  2  0
115116  1  0
116117  2  0
117118  1  0
118119  2  0
119114  1  0
115120  1  0
118121  1  0
122123  2  0
123124  2  0
123125  1  0
125126  2  0
126127  1  0
127128  2  0
128129  1  0
129130  2  0
130131  1  0
131132  2  0
132133  1  0
133134  2  0
134135  1  0
135136  2  0
136123  1  0
130125  1  0
136131  1  0
126137  1  0
128138  1  0
129139  1  0
132140  1  0
133141  1  0
135142  1  0
 13 27  1  0
 34 43  1  0
 46 56  1  0
 63 77  1  0
 84 98  1  0
105114  1  0
117127  1  0
  6143  1  0
134144  1  0
M  END
