78

N        -13.64880        3.03050       -0.72550
C        -13.87350        1.99450       -0.30700
C        -14.17830        0.71830        0.25020
C        -15.52950        0.45660        0.51790
C        -15.90420       -0.71260        1.12370
C        -14.92130       -1.62400        1.46310
C        -13.61930       -1.34790        1.19200
C        -13.20820       -0.15590        0.56970
H        -16.29780        1.17600        0.24920
H        -15.26810       -2.53410        1.94160
H        -12.88430       -2.10040        1.48020
C        -11.77040       -0.02370        0.40170
C        -11.12330        0.63470       -0.59720
N         -9.77100        0.65600       -0.70750
C         -8.98110        0.01900        0.17250
C         -9.61780       -0.64960        1.18210
N        -10.95510       -0.67240        1.29530
H        -11.67570        1.13350       -1.36710
H         -8.99250       -1.18000        1.91530
N         -4.74130        2.35130       -3.14150
C         -5.09980        1.66980       -2.30140
C         -5.58740        0.83480       -1.21350
C         -6.97370        0.75810       -1.02070
C         -7.54240        0.06180        0.02590
C         -6.67170       -0.56120        0.88170
C         -5.32740       -0.50280        0.71550
C         -4.74150        0.20750       -0.35540
H         -7.63500        1.25910       -1.71130
H         -7.04350       -1.13110        1.73500
H         -4.65340       -1.00480        1.40660
C         -3.28850        0.23390       -0.39500
C         -2.52150        0.26890       -1.50980
N         -1.15220        0.21760       -1.45220
C         -0.49180        0.12770       -0.28760
C         -1.25950        0.08910        0.85420
N         -2.59430        0.14060        0.78990
H         -2.93200        0.29400       -2.50390
H         -0.75320        0.01550        1.81440
N          4.07800        0.35150       -3.89830
C          3.63150        0.21070       -2.84890
C          3.04540        0.07230       -1.54410
C          1.64240        0.11830       -1.45670
C          0.96960        0.07430       -0.26610
C          1.71110       -0.01850        0.88210
C          3.09560       -0.06590        0.80600
C          3.77010       -0.02160       -0.42020
H          1.06870        0.19130       -2.36670
H          1.22900       -0.05550        1.85330
H          3.65390       -0.13870        1.71990
C          5.21260       -0.03100       -0.34100
C          6.08260       -0.60130       -1.22730
N          7.43830       -0.61490       -1.02370
C          7.98710       -0.06510        0.06900
C          7.12520        0.50770        0.96570
N          5.80190        0.52780        0.77740
H          5.69930       -1.10880       -2.11180
H          7.56960        0.96260        1.87010
N         12.46450        1.65610        3.57690
C         12.02900        1.07690        2.65850
C         11.46310        0.39760        1.50820
C         10.06700        0.44790        1.35770
C          9.44430       -0.09070        0.27100
C         10.23980       -0.69880       -0.69660
C         11.57200       -0.73720       -0.53260
C         12.25930       -0.19320        0.57870
H          9.51320        0.93100        2.14070
H          9.75250       -1.13520       -1.57670
H         12.21180       -1.20630       -1.27390
C         13.70210       -0.26890        0.60220
C         14.51500       -0.37670        1.67890
N         15.87460       -0.51180        1.54150
C         16.45970       -0.54540        0.33870
C         15.65310       -0.43980       -0.76060
N         14.33260       -0.30770       -0.62050
H         14.14220       -0.40540        2.67720
H         16.12250       -0.46740       -1.73360
H        -16.94630       -0.91440        1.33010
H         17.54670       -0.65420        0.26770
