
     RDKit          3D

 42 45  0  0  0  0  0  0  0  0999 V2000
   -6.4015   -1.5802    0.2041 C   0  0  0  0  0  0  0  0  0  0  0  0
   -6.7777   -0.6612    1.1649 C   0  0  0  0  0  0  0  0  0  0  0  0
   -5.8932    0.3451    1.4872 C   0  0  0  0  0  0  0  0  0  0  0  0
   -4.6632    0.4190    0.8556 C   0  0  0  0  0  0  0  0  0  0  0  0
   -4.2671   -0.4887   -0.1067 C   0  0  0  0  0  0  0  0  0  0  0  0
   -5.1685   -1.4871   -0.4133 C   0  0  0  0  0  0  0  0  0  0  0  0
   -7.7455   -0.7115    1.6687 H   0  0  0  0  0  0  0  0  0  0  0  0
   -6.2065    1.0551    2.2434 H   0  0  0  0  0  0  0  0  0  0  0  0
   -3.9759    1.2165    1.1183 H   0  0  0  0  0  0  0  0  0  0  0  0
   -4.8508   -2.2047   -1.1761 H   0  0  0  0  0  0  0  0  0  0  0  0
   -2.9738   -0.4163   -0.7762 C   0  0  0  0  0  0  0  0  0  0  0  0
   -2.7935   -0.8418   -2.0794 C   0  0  0  0  0  0  0  0  0  0  0  0
   -1.5497   -0.7581   -2.6977 C   0  0  0  0  0  0  0  0  0  0  0  0
   -0.4850   -0.2383   -1.9839 C   0  0  0  0  0  0  0  0  0  0  0  0
   -0.6342    0.1959   -0.6769 C   0  0  0  0  0  0  0  0  0  0  0  0
   -1.8830    0.0952   -0.1026 C   0  0  0  0  0  0  0  0  0  0  0  0
   -3.6594   -1.2474   -2.6104 H   0  0  0  0  0  0  0  0  0  0  0  0
   -1.4064   -1.0901   -3.7200 H   0  0  0  0  0  0  0  0  0  0  0  0
    0.4667   -0.1916   -2.5063 H   0  0  0  0  0  0  0  0  0  0  0  0
   -2.0259    0.4234    0.9045 H   0  0  0  0  0  0  0  0  0  0  0  0
    0.5276    0.7336    0.0135 C   0  0  0  0  0  0  0  0  0  0  0  0
    0.4345    1.7106    0.9814 C   0  0  0  0  0  0  0  0  0  0  0  0
    1.5490    2.2076    1.6232 C   0  0  0  0  0  0  0  0  0  0  0  0
    2.8027    1.7294    1.3046 C   0  0  0  0  0  0  0  0  0  0  0  0
    2.9396    0.7359    0.3257 C   0  0  0  0  0  0  0  0  0  0  0  0
    1.7938    0.2732   -0.2859 C   0  0  0  0  0  0  0  0  0  0  0  0
   -0.5119    2.1078    1.2599 H   0  0  0  0  0  0  0  0  0  0  0  0
    1.4531    2.9866    2.3926 H   0  0  0  0  0  0  0  0  0  0  0  0
    3.7199    2.0866    1.7815 H   0  0  0  0  0  0  0  0  0  0  0  0
    1.9417   -0.5046   -1.0474 H   0  0  0  0  0  0  0  0  0  0  0  0
    4.2566    0.2200   -0.0252 C   0  0  0  0  0  0  0  0  0  0  0  0
    4.4972   -1.0688   -0.4491 C   0  0  0  0  0  0  0  0  0  0  0  0
    5.7327   -1.5667   -0.7833 C   0  0  0  0  0  0  0  0  0  0  0  0
    6.8155   -0.7041   -0.6848 C   0  0  0  0  0  0  0  0  0  0  0  0
    6.6253    0.6067   -0.2619 C   0  0  0  0  0  0  0  0  0  0  0  0
    5.3582    1.0559    0.0621 C   0  0  0  0  0  0  0  0  0  0  0  0
    3.6462   -1.7393   -0.5230 H   0  0  0  0  0  0  0  0  0  0  0  0
    5.8940   -2.5891   -1.1145 H   0  0  0  0  0  0  0  0  0  0  0  0
    7.7780   -1.0781   -0.9395 H   0  0  0  0  0  0  0  0  0  0  0  0
    5.2397    2.0603    0.3821 H   0  0  0  0  0  0  0  0  0  0  0  0
   -7.0930   -2.3547   -0.0400 H   0  0  0  0  0  0  0  0  0  0  0  0
    7.4937    1.2582   -0.1957 H   0  0  0  0  0  0  0  0  0  0  0  0
  1  2  2  0
  2  3  1  0
  3  4  2  0
  4  5  1  0
  5  6  2  0
  6  1  1  0
  2  7  1  0
  3  8  1  0
  4  9  1  0
  6 10  1  0
 11 12  2  0
 12 13  1  0
 13 14  2  0
 14 15  1  0
 15 16  2  0
 16 11  1  0
 12 17  1  0
 13 18  1  0
 14 19  1  0
 16 20  1  0
 21 22  2  0
 22 23  1  0
 23 24  2  0
 24 25  1  0
 25 26  2  0
 26 21  1  0
 22 27  1  0
 23 28  1  0
 24 29  1  0
 26 30  1  0
 31 32  2  0
 32 33  1  0
 33 34  2  0
 34 35  1  0
 35 36  2  0
 36 31  1  0
 32 37  1  0
 33 38  1  0
 34 39  1  0
 36 40  1  0
  5 11  1  0
 15 21  1  0
 25 31  1  0
  1 41  1  0
 35 42  1  0
M  END
