
     RDKit          3D

124141  0  0  0  0  0  0  0  0999 V2000
   18.5823    2.2969   -1.8140 O   0  0  0  0  0  0  0  0  0  0  0  0
   18.3418    2.8335   -0.4433 S   0  0  0  0  0  0  0  0  0  0  0  0
   17.6759    4.1824   -0.4707 O   0  0  0  0  0  0  0  0  0  0  0  0
   19.7592    2.8244    0.5619 C   0  0  0  0  0  0  0  0  0  0  0  0
   20.9497    3.4735    0.4165 C   0  0  0  0  0  0  0  0  0  0  0  0
   21.9933    3.3594    1.3288 C   0  0  0  0  0  0  0  0  0  0  0  0
   21.7354    2.5353    2.4006 C   0  0  0  0  0  0  0  0  0  0  0  0
   20.5380    1.8822    2.5474 C   0  0  0  0  0  0  0  0  0  0  0  0
   19.5075    2.0169    1.6130 C   0  0  0  0  0  0  0  0  0  0  0  0
   18.2051    1.4038    1.6113 C   0  0  0  0  0  0  0  0  0  0  0  0
   17.6360    0.5339    2.5249 C   0  0  0  0  0  0  0  0  0  0  0  0
   16.3493    0.0221    2.3796 C   0  0  0  0  0  0  0  0  0  0  0  0
   15.5672    0.3520    1.3151 C   0  0  0  0  0  0  0  0  0  0  0  0
   16.1229    1.2210    0.3904 C   0  0  0  0  0  0  0  0  0  0  0  0
   17.4028    1.7193    0.5530 C   0  0  0  0  0  0  0  0  0  0  0  0
   21.1479    4.1307   -0.4418 H   0  0  0  0  0  0  0  0  0  0  0  0
   22.5172    2.4186    3.1336 H   0  0  0  0  0  0  0  0  0  0  0  0
   20.4216    1.2407    3.4399 H   0  0  0  0  0  0  0  0  0  0  0  0
   18.1955    0.2140    3.4207 H   0  0  0  0  0  0  0  0  0  0  0  0
   15.9575   -0.6588    3.1350 H   0  0  0  0  0  0  0  0  0  0  0  0
   15.5337    1.5067   -0.4701 H   0  0  0  0  0  0  0  0  0  0  0  0
   14.1820   -0.1083    1.1019 C   0  0  0  0  0  0  0  0  0  0  0  0
   13.5501   -0.8622    2.0521 C   0  0  0  0  0  0  0  0  0  0  0  0
   12.2700   -1.2277    1.8627 N   0  0  0  0  0  0  0  0  0  0  0  0
   11.5945   -0.8675    0.7581 C   0  0  0  0  0  0  0  0  0  0  0  0
   12.2417   -0.1172   -0.1790 C   0  0  0  0  0  0  0  0  0  0  0  0
   13.5162    0.2529   -0.0036 N   0  0  0  0  0  0  0  0  0  0  0  0
   14.0826   -1.1693    2.9656 H   0  0  0  0  0  0  0  0  0  0  0  0
   11.7309    0.2413   -1.0963 H   0  0  0  0  0  0  0  0  0  0  0  0
   10.1756   -1.1475    0.7488 C   0  0  0  0  0  0  0  0  0  0  0  0
    9.4750   -0.8959    1.9650 C   0  0  0  0  0  0  0  0  0  0  0  0
    8.1350   -1.0530    2.0863 C   0  0  0  0  0  0  0  0  0  0  0  0
    7.4080   -1.4756    0.9919 C   0  0  0  0  0  0  0  0  0  0  0  0
    6.0473   -1.5920    1.1185 C   0  0  0  0  0  0  0  0  0  0  0  0
    5.2523   -1.9865    0.0310 C   0  0  0  0  0  0  0  0  0  0  0  0
    5.8456   -2.2642   -1.1741 C   0  0  0  0  0  0  0  0  0  0  0  0
    5.0806   -2.6465   -2.2588 C   0  0  0  0  0  0  0  0  0  0  0  0
    5.7415   -2.9043   -3.4638 C   0  0  0  0  0  0  0  0  0  0  0  0
    7.1087   -2.7771   -3.5457 C   0  0  0  0  0  0  0  0  0  0  0  0
    7.8521   -2.3922   -2.4522 C   0  0  0  0  0  0  0  0  0  0  0  0
    9.2110   -2.2529   -2.5777 C   0  0  0  0  0  0  0  0  0  0  0  0
    9.9973   -1.8396   -1.5008 C   0  0  0  0  0  0  0  0  0  0  0  0
    9.4080   -1.5705   -0.3000 C   0  0  0  0  0  0  0  0  0  0  0  0
    8.0364   -1.7418   -0.2154 C   0  0  0  0  0  0  0  0  0  0  0  0
    7.2219   -2.1292   -1.2481 C   0  0  0  0  0  0  0  0  0  0  0  0
   10.0630   -0.5667    2.8099 H   0  0  0  0  0  0  0  0  0  0  0  0
    7.6207   -0.8519    3.0349 H   0  0  0  0  0  0  0  0  0  0  0  0
    5.5510   -1.3809    2.0729 H   0  0  0  0  0  0  0  0  0  0  0  0
    4.1877   -2.0178    0.1629 H   0  0  0  0  0  0  0  0  0  0  0  0
    5.1819   -3.2060   -4.3436 H   0  0  0  0  0  0  0  0  0  0  0  0
    7.6325   -2.9784   -4.4752 H   0  0  0  0  0  0  0  0  0  0  0  0
    9.7158   -2.4655   -3.5340 H   0  0  0  0  0  0  0  0  0  0  0  0
   11.0671   -1.7809   -1.6110 H   0  0  0  0  0  0  0  0  0  0  0  0
    3.6297   -2.6615   -2.2936 C   0  0  0  0  0  0  0  0  0  0  0  0
    2.7575   -3.1868   -1.4039 C   0  0  0  0  0  0  0  0  0  0  0  0
    1.4256   -3.0768   -1.5452 N   0  0  0  0  0  0  0  0  0  0  0  0
    0.8640   -2.4328   -2.5945 C   0  0  0  0  0  0  0  0  0  0  0  0
    1.7244   -1.9033   -3.5132 C   0  0  0  0  0  0  0  0  0  0  0  0
    3.0516   -2.0104   -3.3729 N   0  0  0  0  0  0  0  0  0  0  0  0
    3.1694   -3.7661   -0.5532 H   0  0  0  0  0  0  0  0  0  0  0  0
    1.2832   -1.3862   -4.3720 H   0  0  0  0  0  0  0  0  0  0  0  0
   -4.1784   -4.0766   -0.0840 O   0  0  0  0  0  0  0  0  0  0  0  0
   -3.8558   -2.6101   -0.1233 S   0  0  0  0  0  0  0  0  0  0  0  0
   -3.4488   -2.0795    1.2027 O   0  0  0  0  0  0  0  0  0  0  0  0
   -2.6818   -2.2664   -1.3865 C   0  0  0  0  0  0  0  0  0  0  0  0
   -1.3326   -2.5735   -1.4841 C   0  0  0  0  0  0  0  0  0  0  0  0
   -0.5963   -2.1973   -2.5970 C   0  0  0  0  0  0  0  0  0  0  0  0
   -1.2600   -1.5234   -3.5859 C   0  0  0  0  0  0  0  0  0  0  0  0
   -2.6057   -1.2246   -3.4738 C   0  0  0  0  0  0  0  0  0  0  0  0
   -3.3619   -1.5886   -2.3566 C   0  0  0  0  0  0  0  0  0  0  0  0
   -4.7362   -1.2665   -2.0364 C   0  0  0  0  0  0  0  0  0  0  0  0
   -5.6543   -0.5176   -2.7705 C   0  0  0  0  0  0  0  0  0  0  0  0
   -6.9071   -0.2161   -2.2848 C   0  0  0  0  0  0  0  0  0  0  0  0
   -7.3077   -0.6441   -1.0481 C   0  0  0  0  0  0  0  0  0  0  0  0
   -6.3870   -1.3925   -0.3287 C   0  0  0  0  0  0  0  0  0  0  0  0
   -5.1476   -1.6808   -0.8293 C   0  0  0  0  0  0  0  0  0  0  0  0
   -0.8477   -3.1046   -0.7008 H   0  0  0  0  0  0  0  0  0  0  0  0
   -0.7147   -1.2172   -4.4816 H   0  0  0  0  0  0  0  0  0  0  0  0
   -3.0656   -0.6781   -4.3130 H   0  0  0  0  0  0  0  0  0  0  0  0
   -5.4115   -0.1331   -3.7780 H   0  0  0  0  0  0  0  0  0  0  0  0
   -7.5885    0.3746   -2.8994 H   0  0  0  0  0  0  0  0  0  0  0  0
   -6.6694   -1.7624    0.6672 H   0  0  0  0  0  0  0  0  0  0  0  0
   -8.6209   -0.2712   -0.5429 C   0  0  0  0  0  0  0  0  0  0  0  0
   -9.0567   -0.5525    0.7306 C   0  0  0  0  0  0  0  0  0  0  0  0
  -10.2546   -0.1491    1.1763 N   0  0  0  0  0  0  0  0  0  0  0  0
  -11.1181    0.5727    0.3774 C   0  0  0  0  0  0  0  0  0  0  0  0
  -10.6594    0.8355   -0.8764 C   0  0  0  0  0  0  0  0  0  0  0  0
   -9.4490    0.4327   -1.3398 N   0  0  0  0  0  0  0  0  0  0  0  0
   -8.3752   -1.1215    1.3677 H   0  0  0  0  0  0  0  0  0  0  0  0
  -11.2778    1.4324   -1.5428 H   0  0  0  0  0  0  0  0  0  0  0  0
  -12.3371    1.0575    1.0058 C   0  0  0  0  0  0  0  0  0  0  0  0
  -12.1889    1.5793    2.3117 C   0  0  0  0  0  0  0  0  0  0  0  0
  -13.2734    2.0327    3.0120 C   0  0  0  0  0  0  0  0  0  0  0  0
  -14.5456    2.0064    2.4960 C   0  0  0  0  0  0  0  0  0  0  0  0
  -15.6139    2.4551    3.2212 C   0  0  0  0  0  0  0  0  0  0  0  0
  -16.9201    2.4170    2.7020 C   0  0  0  0  0  0  0  0  0  0  0  0
  -17.1043    1.9162    1.4355 C   0  0  0  0  0  0  0  0  0  0  0  0
  -18.3747    1.8345    0.9222 C   0  0  0  0  0  0  0  0  0  0  0  0
  -18.5179    1.2651   -0.3614 C   0  0  0  0  0  0  0  0  0  0  0  0
  -17.4431    0.8240   -1.0522 C   0  0  0  0  0  0  0  0  0  0  0  0
  -16.1693    0.9209   -0.5141 C   0  0  0  0  0  0  0  0  0  0  0  0
  -15.1044    0.4442   -1.2427 C   0  0  0  0  0  0  0  0  0  0  0  0
  -13.7912    0.4881   -0.7570 C   0  0  0  0  0  0  0  0  0  0  0  0
  -13.6035    1.0294    0.4947 C   0  0  0  0  0  0  0  0  0  0  0  0
  -14.7060    1.4993    1.2263 C   0  0  0  0  0  0  0  0  0  0  0  0
  -15.9909    1.4708    0.7373 C   0  0  0  0  0  0  0  0  0  0  0  0
  -11.1927    1.6098    2.7336 H   0  0  0  0  0  0  0  0  0  0  0  0
  -13.1610    2.4371    4.0197 H   0  0  0  0  0  0  0  0  0  0  0  0
  -15.5041    2.8608    4.2212 H   0  0  0  0  0  0  0  0  0  0  0  0
  -17.7093    2.7481    3.3505 H   0  0  0  0  0  0  0  0  0  0  0  0
  -19.5293    1.1868   -0.7923 H   0  0  0  0  0  0  0  0  0  0  0  0
  -17.5854    0.3956   -2.0336 H   0  0  0  0  0  0  0  0  0  0  0  0
  -15.2291    0.0093   -2.2392 H   0  0  0  0  0  0  0  0  0  0  0  0
  -12.9991    0.0704   -1.3567 H   0  0  0  0  0  0  0  0  0  0  0  0
  -19.5960    2.2576    1.5707 C   0  0  0  0  0  0  0  0  0  0  0  0
  -19.8352    3.4145    2.2381 C   0  0  0  0  0  0  0  0  0  0  0  0
  -21.0918    3.6861    2.7103 N   0  0  0  0  0  0  0  0  0  0  0  0
  -22.1184    2.8537    2.5436 C   0  0  0  0  0  0  0  0  0  0  0  0
  -21.8804    1.6762    1.8635 C   0  0  0  0  0  0  0  0  0  0  0  0
  -20.6613    1.4010    1.3990 N   0  0  0  0  0  0  0  0  0  0  0  0
  -19.0523    4.1453    2.3716 H   0  0  0  0  0  0  0  0  0  0  0  0
  -22.6667    0.9536    1.6922 H   0  0  0  0  0  0  0  0  0  0  0  0
   22.9342    3.8773    1.2047 H   0  0  0  0  0  0  0  0  0  0  0  0
  -23.0970    3.0661    2.9111 H   0  0  0  0  0  0  0  0  0  0  0  0
  1  2  2  0
  2  3  2  0
  2  4  1  0
  4  5  2  0
  5  6  1  0
  6  7  2  0
  7  8  1  0
  8  9  2  0
  9 10  1  0
 10 11  2  0
 11 12  1  0
 12 13  2  0
 13 14  1  0
 14 15  2  0
 15  2  1  0
  9  4  1  0
 15 10  1  0
  5 16  1  0
  7 17  1  0
  8 18  1  0
 11 19  1  0
 12 20  1  0
 14 21  1  0
 22 23  2  0
 23 24  1  0
 24 25  2  0
 25 26  1  0
 26 27  2  0
 27 22  1  0
 23 28  1  0
 26 29  1  0
 30 31  2  0
 31 32  1  0
 32 33  2  0
 33 34  1  0
 34 35  2  0
 35 36  1  0
 36 37  2  0
 37 38  1  0
 38 39  2  0
 39 40  1  0
 40 41  2  0
 41 42  1  0
 42 43  2  0
 43 44  1  0
 44 45  2  0
 43 30  1  0
 44 33  1  0
 45 36  1  0
 45 40  1  0
 31 46  1  0
 32 47  1  0
 34 48  1  0
 35 49  1  0
 38 50  1  0
 39 51  1  0
 41 52  1  0
 42 53  1  0
 54 55  2  0
 55 56  1  0
 56 57  2  0
 57 58  1  0
 58 59  2  0
 59 54  1  0
 55 60  1  0
 58 61  1  0
 62 63  2  0
 63 64  2  0
 63 65  1  0
 65 66  2  0
 66 67  1  0
 67 68  2  0
 68 69  1  0
 69 70  2  0
 70 71  1  0
 71 72  2  0
 72 73  1  0
 73 74  2  0
 74 75  1  0
 75 76  2  0
 76 63  1  0
 70 65  1  0
 76 71  1  0
 66 77  1  0
 68 78  1  0
 69 79  1  0
 72 80  1  0
 73 81  1  0
 75 82  1  0
 83 84  2  0
 84 85  1  0
 85 86  2  0
 86 87  1  0
 87 88  2  0
 88 83  1  0
 84 89  1  0
 87 90  1  0
 91 92  2  0
 92 93  1  0
 93 94  2  0
 94 95  1  0
 95 96  2  0
 96 97  1  0
 97 98  2  0
 98 99  1  0
 99100  2  0
100101  1  0
101102  2  0
102103  1  0
103104  2  0
104105  1  0
105106  2  0
104 91  1  0
105 94  1  0
106 97  1  0
106101  1  0
 92107  1  0
 93108  1  0
 95109  1  0
 96110  1  0
 99111  1  0
100112  1  0
102113  1  0
103114  1  0
115116  2  0
116117  1  0
117118  2  0
118119  1  0
119120  2  0
120115  1  0
116121  1  0
119122  1  0
 13 22  1  0
 25 30  1  0
 37 54  1  0
 57 67  1  0
 74 83  1  0
 86 91  1  0
 98115  1  0
  6123  1  0
118124  1  0
M  END
