124

O         18.58230        2.29690       -1.81400
S         18.34180        2.83350       -0.44330
O         17.67590        4.18240       -0.47070
C         19.75920        2.82440        0.56190
C         20.94970        3.47350        0.41650
C         21.99330        3.35940        1.32880
C         21.73540        2.53530        2.40060
C         20.53800        1.88220        2.54740
C         19.50750        2.01690        1.61300
C         18.20510        1.40380        1.61130
C         17.63600        0.53390        2.52490
C         16.34930        0.02210        2.37960
C         15.56720        0.35200        1.31510
C         16.12290        1.22100        0.39040
C         17.40280        1.71930        0.55300
H         21.14790        4.13070       -0.44180
H         22.51720        2.41860        3.13360
H         20.42160        1.24070        3.43990
H         18.19550        0.21400        3.42070
H         15.95750       -0.65880        3.13500
H         15.53370        1.50670       -0.47010
C         14.18200       -0.10830        1.10190
C         13.55010       -0.86220        2.05210
N         12.27000       -1.22770        1.86270
C         11.59450       -0.86750        0.75810
C         12.24170       -0.11720       -0.17900
N         13.51620        0.25290       -0.00360
H         14.08260       -1.16930        2.96560
H         11.73090        0.24130       -1.09630
C         10.17560       -1.14750        0.74880
C          9.47500       -0.89590        1.96500
C          8.13500       -1.05300        2.08630
C          7.40800       -1.47560        0.99190
C          6.04730       -1.59200        1.11850
C          5.25230       -1.98650        0.03100
C          5.84560       -2.26420       -1.17410
C          5.08060       -2.64650       -2.25880
C          5.74150       -2.90430       -3.46380
C          7.10870       -2.77710       -3.54570
C          7.85210       -2.39220       -2.45220
C          9.21100       -2.25290       -2.57770
C          9.99730       -1.83960       -1.50080
C          9.40800       -1.57050       -0.30000
C          8.03640       -1.74180       -0.21540
C          7.22190       -2.12920       -1.24810
H         10.06300       -0.56670        2.80990
H          7.62070       -0.85190        3.03490
H          5.55100       -1.38090        2.07290
H          4.18770       -2.01780        0.16290
H          5.18190       -3.20600       -4.34360
H          7.63250       -2.97840       -4.47520
H          9.71580       -2.46550       -3.53400
H         11.06710       -1.78090       -1.61100
C          3.62970       -2.66150       -2.29360
C          2.75750       -3.18680       -1.40390
N          1.42560       -3.07680       -1.54520
C          0.86400       -2.43280       -2.59450
C          1.72440       -1.90330       -3.51320
N          3.05160       -2.01040       -3.37290
H          3.16940       -3.76610       -0.55320
H          1.28320       -1.38620       -4.37200
O         -4.17840       -4.07660       -0.08400
S         -3.85580       -2.61010       -0.12330
O         -3.44880       -2.07950        1.20270
C         -2.68180       -2.26640       -1.38650
C         -1.33260       -2.57350       -1.48410
C         -0.59630       -2.19730       -2.59700
C         -1.26000       -1.52340       -3.58590
C         -2.60570       -1.22460       -3.47380
C         -3.36190       -1.58860       -2.35660
C         -4.73620       -1.26650       -2.03640
C         -5.65430       -0.51760       -2.77050
C         -6.90710       -0.21610       -2.28480
C         -7.30770       -0.64410       -1.04810
C         -6.38700       -1.39250       -0.32870
C         -5.14760       -1.68080       -0.82930
H         -0.84770       -3.10460       -0.70080
H         -0.71470       -1.21720       -4.48160
H         -3.06560       -0.67810       -4.31300
H         -5.41150       -0.13310       -3.77800
H         -7.58850        0.37460       -2.89940
H         -6.66940       -1.76240        0.66720
C         -8.62090       -0.27120       -0.54290
C         -9.05670       -0.55250        0.73060
N        -10.25460       -0.14910        1.17630
C        -11.11810        0.57270        0.37740
C        -10.65940        0.83550       -0.87640
N         -9.44900        0.43270       -1.33980
H         -8.37520       -1.12150        1.36770
H        -11.27780        1.43240       -1.54280
C        -12.33710        1.05750        1.00580
C        -12.18890        1.57930        2.31170
C        -13.27340        2.03270        3.01200
C        -14.54560        2.00640        2.49600
C        -15.61390        2.45510        3.22120
C        -16.92010        2.41700        2.70200
C        -17.10430        1.91620        1.43550
C        -18.37470        1.83450        0.92220
C        -18.51790        1.26510       -0.36140
C        -17.44310        0.82400       -1.05220
C        -16.16930        0.92090       -0.51410
C        -15.10440        0.44420       -1.24270
C        -13.79120        0.48810       -0.75700
C        -13.60350        1.02940        0.49470
C        -14.70600        1.49930        1.22630
C        -15.99090        1.47080        0.73730
H        -11.19270        1.60980        2.73360
H        -13.16100        2.43710        4.01970
H        -15.50410        2.86080        4.22120
H        -17.70930        2.74810        3.35050
H        -19.52930        1.18680       -0.79230
H        -17.58540        0.39560       -2.03360
H        -15.22910        0.00930       -2.23920
H        -12.99910        0.07040       -1.35670
C        -19.59600        2.25760        1.57070
C        -19.83520        3.41450        2.23810
N        -21.09180        3.68610        2.71030
C        -22.11840        2.85370        2.54360
C        -21.88040        1.67620        1.86350
N        -20.66130        1.40100        1.39900
H        -19.05230        4.14530        2.37160
H        -22.66670        0.95360        1.69220
H         22.93420        3.87730        1.20470
H        -23.09700        3.06610        2.91110
