182

C        -28.36930       -2.83700        1.08350
C        -28.14370       -3.72000        0.02290
C        -27.00950       -3.53690       -0.75320
C        -26.13910       -2.51100       -0.47820
C        -25.00550       -2.36480       -1.26240
C        -24.08360       -1.34990       -1.00530
C        -24.27760       -0.47370        0.03120
C        -23.38540        0.53090        0.32280
C        -23.64920        1.39980        1.39700
C        -24.78680        1.23280        2.14830
C        -25.68590        0.22040        1.87070
C        -26.82150        0.04630        2.64360
C        -27.73230       -0.96260        2.40410
C        -27.48810       -1.81430        1.35030
C        -26.35980       -1.63450        0.57470
C        -25.43510       -0.64100        0.80910
H        -28.84520       -4.54680       -0.19220
H        -26.86700       -4.24400       -1.55840
H        -24.83000       -3.05070       -2.07440
H        -23.24130       -1.24900       -1.64660
H        -22.92400        2.17990        1.58740
H        -24.98620        1.89770        2.97880
H        -27.00470        0.72570        3.46310
H        -28.60460       -1.06060        3.05210
O        -19.78750        3.34810       -3.47050
S        -19.27070        3.02870       -2.09600
O        -19.25060        4.21100       -1.20030
C        -20.25610        1.74540       -1.36070
C        -21.56060        1.74960       -0.86750
C        -22.09010        0.61410       -0.33480
C        -21.26440       -0.52720       -0.31740
C        -20.01110       -0.51580       -0.79580
C        -19.43610        0.64950       -1.35020
C        -18.08740        0.87330       -1.78420
C        -17.02850       -0.03360       -1.77120
C        -15.77840        0.34750       -2.09700
C        -15.44220        1.66170       -2.46810
C        -16.49180        2.53640       -2.48380
C        -17.77990        2.14740       -2.14970
H        -22.10450        2.68510       -0.94780
H        -21.69300       -1.42040        0.11610
H        -19.42540       -1.44250       -0.75550
H        -17.16220       -1.09150       -1.49660
H        -14.97630       -0.40870       -2.08920
H        -16.26730        3.56070       -2.77220
O        -10.63670       -1.00190       -1.06660
S        -10.62010        0.48900       -0.88600
O        -10.62860        0.91660        0.53760
C        -11.81500        1.28780       -1.85120
C        -13.16590        1.19320       -1.79220
C        -14.03240        1.92410       -2.65390
C        -13.41470        2.73170       -3.54330
C        -12.03400        2.81440       -3.58680
C        -11.20630        2.10190       -2.75360
C         -9.75630        2.02700       -2.68560
C         -8.79290        2.67590       -3.47760
C         -7.43230        2.44630       -3.29550
C         -6.93390        1.60100       -2.36480
C         -7.90410        0.95430       -1.57140
C         -9.23810        1.18760       -1.75870
H        -13.64980        0.55160       -1.05020
H        -14.03170        3.30660       -4.22540
H        -11.61880        3.50650       -4.34270
H         -9.11520        3.38010       -4.25890
H         -6.71020        2.97900       -3.93820
H         -7.57150        0.26820       -0.81000
C         -5.55010        1.19160       -2.12260
C         -4.86920        0.39030       -3.04840
C         -3.65270       -0.16880       -2.76810
C         -3.08960        0.07650       -1.53320
C         -1.86080       -0.54170       -1.28710
C         -1.30480       -0.32310       -0.04030
C         -1.89470        0.44610        0.91390
C         -1.25010        0.62150        2.15000
C         -1.89420        1.42310        3.06040
C         -3.10920        2.01580        2.76090
C         -3.73500        1.83390        1.55070
C         -4.97410        2.41380        1.25010
C         -5.60200        2.21050        0.02210
C         -4.96350        1.41970       -0.90610
C         -3.71670        0.85060       -0.61050
C         -3.10910        1.03660        0.62230
H         -5.32880        0.22420       -4.01060
H         -3.13390       -0.80180       -3.51070
H         -1.37680       -1.15910       -2.02980
H         -0.36340       -0.79950        0.13980
H         -1.41220        1.57240        4.02510
H         -3.55450        2.63240        3.52520
H         -5.42270        3.02310        1.98850
H         -6.54780        2.66570       -0.20970
C          0.02500       -0.05400        2.38800
C          0.16220       -1.26890        3.01330
C          1.40070       -1.87270        3.16750
C          2.54770       -1.27640        2.69680
C          3.78590       -1.89860        2.82000
C          4.94480       -1.31880        2.31530
C          4.82390       -0.10330        1.68660
C          5.94280        0.46820        1.16960
C          5.79240        1.71540        0.52020
C          4.59250        2.33640        0.40170
C          3.45890        1.75190        0.92010
C          2.22750        2.34520        0.78200
C          1.09680        1.73770        1.27890
C          1.18910        0.52370        1.92800
C          2.43390       -0.05690        2.06790
C          3.57190        0.52710        1.56450
H         -0.74590       -1.72910        3.37700
H          1.47540       -2.81550        3.64970
H          3.86930       -2.83750        3.30380
H          5.90060       -1.81060        2.42580
H          6.69930        2.15960        0.12010
H          4.49370        3.29090       -0.08930
H          2.17610        3.30710        0.25910
H          0.13600        2.18920        1.17010
O         11.01010        0.02630        4.00630
S         10.68590       -1.18410        3.18590
O         10.32900       -2.38490        4.03560
C          9.38570       -0.85780        2.03800
C          8.10480       -0.30460        2.21670
C          7.27180       -0.14160        1.16070
C          7.76710       -0.56060       -0.09290
C          9.00460       -1.09640       -0.26640
C          9.87180       -1.25930        0.83020
C         11.25580       -1.66810        0.81110
C         12.05130       -2.00250       -0.27640
C         13.39020       -2.24130       -0.19240
C         14.01160       -2.14590        1.04570
C         13.24960       -1.83030        2.13540
C         11.89260       -1.59450        2.01320
H          7.81030       -0.01010        3.21330
H          7.07910       -0.42230       -0.92510
H          9.31540       -1.39540       -1.27870
H         11.60970       -2.09230       -1.26230
H         13.98710       -2.51690       -1.05940
H         13.74330       -1.77450        3.10760
O         18.28160       -1.69320       -2.67250
S         18.49750       -0.94590       -1.41390
O         18.23970        0.52820       -1.56660
C         17.46820       -1.59760       -0.12430
C         16.10740       -1.63550       -0.03890
C         15.46700       -2.20650        1.07660
C         16.29260       -2.69960        2.02640
C         17.67810       -2.66370        1.94600
C         18.31830       -2.08690        0.82270
C         19.72180       -1.90380        0.55460
C         20.83900       -2.23690        1.32160
C         22.12540       -1.94560        0.93210
C         22.40070       -1.31330       -0.22330
C         21.28460       -0.96750       -1.02240
C         20.00850       -1.26440       -0.62300
H         15.51840       -1.21320       -0.82810
H         15.85890       -3.16000        2.90240
H         18.28170       -3.08260        2.73540
H         20.71040       -2.75470        2.27700
H         22.93340       -2.24800        1.60900
H         21.47040       -0.46500       -1.95080
C         23.69930       -0.91090       -0.68440
C         24.08830       -1.44210       -1.92110
C         25.25710       -1.08880       -2.52570
C         26.06160       -0.17740       -1.88070
C         27.22340        0.19510       -2.50450
C         28.02690        1.11360       -1.90620
C         27.68570        1.67310       -0.68230
C         28.46910        2.60310       -0.05950
C         28.11900        3.15810        1.15790
C         26.94620        2.77480        1.78070
C         26.17350        1.83470        1.13180
C         24.98120        1.44910        1.73430
C         24.14580        0.54410        1.16670
C         24.48650       -0.02340       -0.05010
C         25.68350        0.34230       -0.67190
C         26.50060        1.27320       -0.07080
H         23.46090       -2.17650       -2.44740
H         25.52820       -1.51390       -3.46500
H         27.45910       -0.25870       -3.45580
H         28.94870        1.41510       -2.39770
H         28.79580        3.89220        1.61140
H         26.69080        3.21750        2.73750
H         24.72440        1.90430        2.68650
H         23.23530        0.26160        1.63900
H        -29.26190       -3.01590        1.67360
H         29.40480        2.91770       -0.55200
