
     RDKit          3D

104117  0  0  0  0  0  0  0  0999 V2000
  -17.2666    3.1652    1.1465 N   0  0  0  0  0  0  0  0  0  0  0  0
  -17.5637    2.0372    1.0628 C   0  0  0  0  0  0  0  0  0  0  0  0
  -17.9559    0.6418    0.9996 C   0  0  0  0  0  0  0  0  0  0  0  0
  -19.3229    0.3595    1.2381 C   0  0  0  0  0  0  0  0  0  0  0  0
  -19.7829   -0.9374    1.2824 C   0  0  0  0  0  0  0  0  0  0  0  0
  -18.8688   -1.9475    1.0869 C   0  0  0  0  0  0  0  0  0  0  0  0
  -17.5535   -1.6577    0.8561 C   0  0  0  0  0  0  0  0  0  0  0  0
  -17.0573   -0.3470    0.8040 C   0  0  0  0  0  0  0  0  0  0  0  0
  -19.9978    1.1944    1.3863 H   0  0  0  0  0  0  0  0  0  0  0  0
  -19.2280   -2.9794    1.1221 H   0  0  0  0  0  0  0  0  0  0  0  0
  -16.8082   -2.4409    0.6984 H   0  0  0  0  0  0  0  0  0  0  0  0
  -15.6331   -0.1440    0.5994 C   0  0  0  0  0  0  0  0  0  0  0  0
  -15.0712    0.8498   -0.1353 C   0  0  0  0  0  0  0  0  0  0  0  0
  -13.7149    0.9152   -0.3466 N   0  0  0  0  0  0  0  0  0  0  0  0
  -12.8948   -0.0034    0.1654 C   0  0  0  0  0  0  0  0  0  0  0  0
  -13.4455   -1.0219    0.9135 C   0  0  0  0  0  0  0  0  0  0  0  0
  -14.7597   -1.0794    1.1149 N   0  0  0  0  0  0  0  0  0  0  0  0
  -15.6750    1.6056   -0.6212 H   0  0  0  0  0  0  0  0  0  0  0  0
  -12.7547   -1.7717    1.3276 H   0  0  0  0  0  0  0  0  0  0  0  0
  -11.4356    0.0497   -0.0660 C   0  0  0  0  0  0  0  0  0  0  0  0
  -10.8726    1.0381   -0.8290 C   0  0  0  0  0  0  0  0  0  0  0  0
   -9.5469    1.1067   -1.0651 N   0  0  0  0  0  0  0  0  0  0  0  0
   -8.7148    0.1577   -0.5261 C   0  0  0  0  0  0  0  0  0  0  0  0
   -9.2964   -0.8150    0.2273 C   0  0  0  0  0  0  0  0  0  0  0  0
  -10.6353   -0.8887    0.4683 N   0  0  0  0  0  0  0  0  0  0  0  0
  -11.5579    1.7931   -1.2523 H   0  0  0  0  0  0  0  0  0  0  0  0
   -8.6982   -1.6286    0.6686 H   0  0  0  0  0  0  0  0  0  0  0  0
   -7.3084    0.1529   -0.8428 C   0  0  0  0  0  0  0  0  0  0  0  0
   -6.9894    0.3015   -2.2102 C   0  0  0  0  0  0  0  0  0  0  0  0
   -5.6790    0.3533   -2.6277 C   0  0  0  0  0  0  0  0  0  0  0  0
   -4.6251    0.2658   -1.7452 C   0  0  0  0  0  0  0  0  0  0  0  0
   -3.3239    0.3400   -2.1979 C   0  0  0  0  0  0  0  0  0  0  0  0
   -2.2588    0.2762   -1.3104 C   0  0  0  0  0  0  0  0  0  0  0  0
   -2.5310    0.1399    0.0343 C   0  0  0  0  0  0  0  0  0  0  0  0
   -1.5103    0.0975    0.9328 C   0  0  0  0  0  0  0  0  0  0  0  0
   -1.8197   -0.0303    2.2967 C   0  0  0  0  0  0  0  0  0  0  0  0
   -3.1190   -0.1083    2.7288 C   0  0  0  0  0  0  0  0  0  0  0  0
   -4.1323   -0.0591    1.8075 C   0  0  0  0  0  0  0  0  0  0  0  0
   -5.4451   -0.1128    2.2408 C   0  0  0  0  0  0  0  0  0  0  0  0
   -6.5290   -0.0494    1.3783 C   0  0  0  0  0  0  0  0  0  0  0  0
   -6.2622    0.0683    0.0267 C   0  0  0  0  0  0  0  0  0  0  0  0
   -4.9308    0.1229   -0.4101 C   0  0  0  0  0  0  0  0  0  0  0  0
   -3.8738    0.0640    0.4570 C   0  0  0  0  0  0  0  0  0  0  0  0
   -7.7965    0.3752   -2.9193 H   0  0  0  0  0  0  0  0  0  0  0  0
   -5.4155    0.4682   -3.6877 H   0  0  0  0  0  0  0  0  0  0  0  0
   -3.1255    0.4459   -3.2391 H   0  0  0  0  0  0  0  0  0  0  0  0
   -1.2564    0.3110   -1.6947 H   0  0  0  0  0  0  0  0  0  0  0  0
   -1.0048   -0.0663    2.9993 H   0  0  0  0  0  0  0  0  0  0  0  0
   -3.3435   -0.2077    3.7779 H   0  0  0  0  0  0  0  0  0  0  0  0
   -5.6531   -0.2073    3.3144 H   0  0  0  0  0  0  0  0  0  0  0  0
   -7.5234   -0.0588    1.7732 H   0  0  0  0  0  0  0  0  0  0  0  0
    2.3775    3.4877   -1.9793 N   0  0  0  0  0  0  0  0  0  0  0  0
    2.1201    2.6045   -1.2557 C   0  0  0  0  0  0  0  0  0  0  0  0
    1.7600    1.4941   -0.3927 C   0  0  0  0  0  0  0  0  0  0  0  0
    0.3943    1.3208   -0.1164 C   0  0  0  0  0  0  0  0  0  0  0  0
   -0.1081    0.2684    0.6012 C   0  0  0  0  0  0  0  0  0  0  0  0
    0.8391   -0.6481    1.0542 C   0  0  0  0  0  0  0  0  0  0  0  0
    2.1709   -0.4874    0.7929 C   0  0  0  0  0  0  0  0  0  0  0  0
    2.6632    0.6051    0.0552 C   0  0  0  0  0  0  0  0  0  0  0  0
   -0.2922    2.0661   -0.4830 H   0  0  0  0  0  0  0  0  0  0  0  0
    0.4727   -1.5029    1.6273 H   0  0  0  0  0  0  0  0  0  0  0  0
    2.9148   -1.2000    1.1467 H   0  0  0  0  0  0  0  0  0  0  0  0
    4.0812    0.6759   -0.1752 C   0  0  0  0  0  0  0  0  0  0  0  0
    4.8737    1.7626   -0.3213 C   0  0  0  0  0  0  0  0  0  0  0  0
    6.2258    1.6721   -0.4594 N   0  0  0  0  0  0  0  0  0  0  0  0
    6.8546    0.4759   -0.4546 C   0  0  0  0  0  0  0  0  0  0  0  0
    6.0776   -0.6373   -0.3062 C   0  0  0  0  0  0  0  0  0  0  0  0
    4.7528   -0.5238   -0.1737 N   0  0  0  0  0  0  0  0  0  0  0  0
    4.4521    2.7671   -0.2835 H   0  0  0  0  0  0  0  0  0  0  0  0
    6.5415   -1.6465   -0.2938 H   0  0  0  0  0  0  0  0  0  0  0  0
    8.2998    0.4551   -0.6073 C   0  0  0  0  0  0  0  0  0  0  0  0
    9.0233   -0.7106   -0.5983 C   0  0  0  0  0  0  0  0  0  0  0  0
   10.3596   -0.6542   -0.7326 N   0  0  0  0  0  0  0  0  0  0  0  0
   11.0845    0.4498   -0.8799 C   0  0  0  0  0  0  0  0  0  0  0  0
   10.3334    1.6416   -0.8874 C   0  0  0  0  0  0  0  0  0  0  0  0
    9.0025    1.6009   -0.7542 N   0  0  0  0  0  0  0  0  0  0  0  0
    8.5303   -1.6788   -0.4856 H   0  0  0  0  0  0  0  0  0  0  0  0
   10.8862    2.5564   -0.9883 H   0  0  0  0  0  0  0  0  0  0  0  0
   12.5292    0.5124   -0.9876 C   0  0  0  0  0  0  0  0  0  0  0  0
   13.0868    1.6131   -1.6430 C   0  0  0  0  0  0  0  0  0  0  0  0
   14.4542    1.7811   -1.7696 C   0  0  0  0  0  0  0  0  0  0  0  0
   15.3319    0.8530   -1.2453 C   0  0  0  0  0  0  0  0  0  0  0  0
   16.6955    1.0148   -1.3668 C   0  0  0  0  0  0  0  0  0  0  0  0
   17.5817    0.1041   -0.8482 C   0  0  0  0  0  0  0  0  0  0  0  0
   17.0650   -0.9956   -0.1906 C   0  0  0  0  0  0  0  0  0  0  0  0
   17.9619   -1.9095    0.3450 C   0  0  0  0  0  0  0  0  0  0  0  0
   17.5007   -3.0055    1.0143 C   0  0  0  0  0  0  0  0  0  0  0  0
   16.1372   -3.1679    1.1362 C   0  0  0  0  0  0  0  0  0  0  0  0
   15.2205   -2.2688    0.6095 C   0  0  0  0  0  0  0  0  0  0  0  0
   13.8722   -2.4408    0.7449 C   0  0  0  0  0  0  0  0  0  0  0  0
   12.9831   -1.5094    0.2060 C   0  0  0  0  0  0  0  0  0  0  0  0
   13.4124   -0.3969   -0.4725 C   0  0  0  0  0  0  0  0  0  0  0  0
   14.8037   -0.2420   -0.5925 C   0  0  0  0  0  0  0  0  0  0  0  0
   15.6877   -1.1650   -0.0650 C   0  0  0  0  0  0  0  0  0  0  0  0
   12.4259    2.3373   -2.0693 H   0  0  0  0  0  0  0  0  0  0  0  0
   14.8053    2.6547   -2.2896 H   0  0  0  0  0  0  0  0  0  0  0  0
   17.0908    1.8856   -1.8886 H   0  0  0  0  0  0  0  0  0  0  0  0
   18.6518    0.2168   -0.9365 H   0  0  0  0  0  0  0  0  0  0  0  0
   18.1588   -3.7482    1.4520 H   0  0  0  0  0  0  0  0  0  0  0  0
   15.7359   -4.0248    1.6623 H   0  0  0  0  0  0  0  0  0  0  0  0
   13.5015   -3.3005    1.2720 H   0  0  0  0  0  0  0  0  0  0  0  0
   11.9596   -1.7071    0.3688 H   0  0  0  0  0  0  0  0  0  0  0  0
  -20.8152   -1.1691    1.4603 H   0  0  0  0  0  0  0  0  0  0  0  0
   19.0394   -1.7589    0.2358 H   0  0  0  0  0  0  0  0  0  0  0  0
  1  2  3  0
  2  3  1  0
  3  4  2  0
  4  5  1  0
  5  6  2  0
  6  7  1  0
  7  8  2  0
  8  3  1  0
  4  9  1  0
  6 10  1  0
  7 11  1  0
 12 13  2  0
 13 14  1  0
 14 15  2  0
 15 16  1  0
 16 17  2  0
 17 12  1  0
 13 18  1  0
 16 19  1  0
 20 21  2  0
 21 22  1  0
 22 23  2  0
 23 24  1  0
 24 25  2  0
 25 20  1  0
 21 26  1  0
 24 27  1  0
 28 29  2  0
 29 30  1  0
 30 31  2  0
 31 32  1  0
 32 33  2  0
 33 34  1  0
 34 35  2  0
 35 36  1  0
 36 37  2  0
 37 38  1  0
 38 39  2  0
 39 40  1  0
 40 41  2  0
 41 42  1  0
 42 43  2  0
 41 28  1  0
 42 31  1  0
 43 34  1  0
 43 38  1  0
 29 44  1  0
 30 45  1  0
 32 46  1  0
 33 47  1  0
 36 48  1  0
 37 49  1  0
 39 50  1  0
 40 51  1  0
 52 53  3  0
 53 54  1  0
 54 55  2  0
 55 56  1  0
 56 57  2  0
 57 58  1  0
 58 59  2  0
 59 54  1  0
 55 60  1  0
 57 61  1  0
 58 62  1  0
 63 64  2  0
 64 65  1  0
 65 66  2  0
 66 67  1  0
 67 68  2  0
 68 63  1  0
 64 69  1  0
 67 70  1  0
 71 72  2  0
 72 73  1  0
 73 74  2  0
 74 75  1  0
 75 76  2  0
 76 71  1  0
 72 77  1  0
 75 78  1  0
 79 80  2  0
 80 81  1  0
 81 82  2  0
 82 83  1  0
 83 84  2  0
 84 85  1  0
 85 86  2  0
 86 87  1  0
 87 88  2  0
 88 89  1  0
 89 90  2  0
 90 91  1  0
 91 92  2  0
 92 93  1  0
 93 94  2  0
 92 79  1  0
 93 82  1  0
 94 85  1  0
 94 89  1  0
 80 95  1  0
 81 96  1  0
 83 97  1  0
 84 98  1  0
 87 99  1  0
 88100  1  0
 90101  1  0
 91102  1  0
  8 12  1  0
 15 20  1  0
 23 28  1  0
 35 56  1  0
 59 63  1  0
 66 71  1  0
 74 79  1  0
  5103  1  0
 86104  1  0
M  END
