104

N        -17.26660        3.16520        1.14650
C        -17.56370        2.03720        1.06280
C        -17.95590        0.64180        0.99960
C        -19.32290        0.35950        1.23810
C        -19.78290       -0.93740        1.28240
C        -18.86880       -1.94750        1.08690
C        -17.55350       -1.65770        0.85610
C        -17.05730       -0.34700        0.80400
H        -19.99780        1.19440        1.38630
H        -19.22800       -2.97940        1.12210
H        -16.80820       -2.44090        0.69840
C        -15.63310       -0.14400        0.59940
C        -15.07120        0.84980       -0.13530
N        -13.71490        0.91520       -0.34660
C        -12.89480       -0.00340        0.16540
C        -13.44550       -1.02190        0.91350
N        -14.75970       -1.07940        1.11490
H        -15.67500        1.60560       -0.62120
H        -12.75470       -1.77170        1.32760
C        -11.43560        0.04970       -0.06600
C        -10.87260        1.03810       -0.82900
N         -9.54690        1.10670       -1.06510
C         -8.71480        0.15770       -0.52610
C         -9.29640       -0.81500        0.22730
N        -10.63530       -0.88870        0.46830
H        -11.55790        1.79310       -1.25230
H         -8.69820       -1.62860        0.66860
C         -7.30840        0.15290       -0.84280
C         -6.98940        0.30150       -2.21020
C         -5.67900        0.35330       -2.62770
C         -4.62510        0.26580       -1.74520
C         -3.32390        0.34000       -2.19790
C         -2.25880        0.27620       -1.31040
C         -2.53100        0.13990        0.03430
C         -1.51030        0.09750        0.93280
C         -1.81970       -0.03030        2.29670
C         -3.11900       -0.10830        2.72880
C         -4.13230       -0.05910        1.80750
C         -5.44510       -0.11280        2.24080
C         -6.52900       -0.04940        1.37830
C         -6.26220        0.06830        0.02670
C         -4.93080        0.12290       -0.41010
C         -3.87380        0.06400        0.45700
H         -7.79650        0.37520       -2.91930
H         -5.41550        0.46820       -3.68770
H         -3.12550        0.44590       -3.23910
H         -1.25640        0.31100       -1.69470
H         -1.00480       -0.06630        2.99930
H         -3.34350       -0.20770        3.77790
H         -5.65310       -0.20730        3.31440
H         -7.52340       -0.05880        1.77320
N          2.37750        3.48770       -1.97930
C          2.12010        2.60450       -1.25570
C          1.76000        1.49410       -0.39270
C          0.39430        1.32080       -0.11640
C         -0.10810        0.26840        0.60120
C          0.83910       -0.64810        1.05420
C          2.17090       -0.48740        0.79290
C          2.66320        0.60510        0.05520
H         -0.29220        2.06610       -0.48300
H          0.47270       -1.50290        1.62730
H          2.91480       -1.20000        1.14670
C          4.08120        0.67590       -0.17520
C          4.87370        1.76260       -0.32130
N          6.22580        1.67210       -0.45940
C          6.85460        0.47590       -0.45460
C          6.07760       -0.63730       -0.30620
N          4.75280       -0.52380       -0.17370
H          4.45210        2.76710       -0.28350
H          6.54150       -1.64650       -0.29380
C          8.29980        0.45510       -0.60730
C          9.02330       -0.71060       -0.59830
N         10.35960       -0.65420       -0.73260
C         11.08450        0.44980       -0.87990
C         10.33340        1.64160       -0.88740
N          9.00250        1.60090       -0.75420
H          8.53030       -1.67880       -0.48560
H         10.88620        2.55640       -0.98830
C         12.52920        0.51240       -0.98760
C         13.08680        1.61310       -1.64300
C         14.45420        1.78110       -1.76960
C         15.33190        0.85300       -1.24530
C         16.69550        1.01480       -1.36680
C         17.58170        0.10410       -0.84820
C         17.06500       -0.99560       -0.19060
C         17.96190       -1.90950        0.34500
C         17.50070       -3.00550        1.01430
C         16.13720       -3.16790        1.13620
C         15.22050       -2.26880        0.60950
C         13.87220       -2.44080        0.74490
C         12.98310       -1.50940        0.20600
C         13.41240       -0.39690       -0.47250
C         14.80370       -0.24200       -0.59250
C         15.68770       -1.16500       -0.06500
H         12.42590        2.33730       -2.06930
H         14.80530        2.65470       -2.28960
H         17.09080        1.88560       -1.88860
H         18.65180        0.21680       -0.93650
H         18.15880       -3.74820        1.45200
H         15.73590       -4.02480        1.66230
H         13.50150       -3.30050        1.27200
H         11.95960       -1.70710        0.36880
H        -20.81520       -1.16910        1.46030
H         19.03940       -1.75890        0.23580
