
     RDKit          3D

142161  0  0  0  0  0  0  0  0999 V2000
  -17.9182    3.6471    3.9353 N   0  0  0  0  0  0  0  0  0  0  0  0
  -18.1878    3.8881    2.8330 C   0  0  0  0  0  0  0  0  0  0  0  0
  -18.5176    4.2058    1.4675 C   0  0  0  0  0  0  0  0  0  0  0  0
  -19.5767    5.0947    1.2120 C   0  0  0  0  0  0  0  0  0  0  0  0
  -19.9154    5.4319   -0.0763 C   0  0  0  0  0  0  0  0  0  0  0  0
  -19.1960    4.8808   -1.1065 C   0  0  0  0  0  0  0  0  0  0  0  0
  -18.1666    4.0151   -0.8389 C   0  0  0  0  0  0  0  0  0  0  0  0
  -17.7988    3.6547    0.4355 C   0  0  0  0  0  0  0  0  0  0  0  0
  -20.1239    5.5149    2.0569 H   0  0  0  0  0  0  0  0  0  0  0  0
  -19.4524    5.1386   -2.1194 H   0  0  0  0  0  0  0  0  0  0  0  0
  -17.5834    3.5727   -1.6683 H   0  0  0  0  0  0  0  0  0  0  0  0
  -15.8888   -1.3012    3.1591 N   0  0  0  0  0  0  0  0  0  0  0  0
  -15.7816   -0.3692    2.4731 C   0  0  0  0  0  0  0  0  0  0  0  0
  -15.6547    0.7817    1.5999 C   0  0  0  0  0  0  0  0  0  0  0  0
  -16.7595    1.6281    1.4380 C   0  0  0  0  0  0  0  0  0  0  0  0
  -16.6927    2.7307    0.6284 C   0  0  0  0  0  0  0  0  0  0  0  0
  -15.4704    2.9595   -0.0221 C   0  0  0  0  0  0  0  0  0  0  0  0
  -14.4038    2.1216    0.1495 C   0  0  0  0  0  0  0  0  0  0  0  0
  -14.4688    0.9934    0.9784 C   0  0  0  0  0  0  0  0  0  0  0  0
  -17.6844    1.3914    1.9652 H   0  0  0  0  0  0  0  0  0  0  0  0
  -15.4415    3.8405   -0.6593 H   0  0  0  0  0  0  0  0  0  0  0  0
  -13.4635    2.3224   -0.3626 H   0  0  0  0  0  0  0  0  0  0  0  0
  -13.2705    0.1959    1.1705 C   0  0  0  0  0  0  0  0  0  0  0  0
  -12.7274    0.0652    2.4660 C   0  0  0  0  0  0  0  0  0  0  0  0
  -11.5466   -0.5645    2.7155 C   0  0  0  0  0  0  0  0  0  0  0  0
  -10.8308   -1.1091    1.6602 C   0  0  0  0  0  0  0  0  0  0  0  0
   -9.6111   -1.7227    1.8698 C   0  0  0  0  0  0  0  0  0  0  0  0
   -8.8754   -2.2388    0.8256 C   0  0  0  0  0  0  0  0  0  0  0  0
   -9.3350   -2.1626   -0.4729 C   0  0  0  0  0  0  0  0  0  0  0  0
   -8.5863   -2.6768   -1.5073 C   0  0  0  0  0  0  0  0  0  0  0  0
   -9.0851   -2.5800   -2.7839 C   0  0  0  0  0  0  0  0  0  0  0  0
  -10.3007   -1.9833   -3.0475 C   0  0  0  0  0  0  0  0  0  0  0  0
  -11.0276   -1.4673   -1.9670 C   0  0  0  0  0  0  0  0  0  0  0  0
  -12.2344   -0.8338   -2.1741 C   0  0  0  0  0  0  0  0  0  0  0  0
  -12.9741   -0.2875   -1.1303 C   0  0  0  0  0  0  0  0  0  0  0  0
  -12.5194   -0.3685    0.1572 C   0  0  0  0  0  0  0  0  0  0  0  0
  -11.3148   -1.0163    0.3643 C   0  0  0  0  0  0  0  0  0  0  0  0
  -10.5528   -1.5513   -0.6734 C   0  0  0  0  0  0  0  0  0  0  0  0
  -13.2701    0.4828    3.3043 H   0  0  0  0  0  0  0  0  0  0  0  0
  -11.1387   -0.6587    3.7121 H   0  0  0  0  0  0  0  0  0  0  0  0
   -9.2768   -1.7661    2.9079 H   0  0  0  0  0  0  0  0  0  0  0  0
   -7.9248   -2.7122    1.0189 H   0  0  0  0  0  0  0  0  0  0  0  0
   -8.5282   -2.9823   -3.6409 H   0  0  0  0  0  0  0  0  0  0  0  0
  -10.7109   -1.9001   -4.0439 H   0  0  0  0  0  0  0  0  0  0  0  0
  -12.6122   -0.7604   -3.1792 H   0  0  0  0  0  0  0  0  0  0  0  0
  -13.9290    0.1871   -1.3289 H   0  0  0  0  0  0  0  0  0  0  0  0
   -7.2668   -3.2020   -1.2846 C   0  0  0  0  0  0  0  0  0  0  0  0
   -7.0137   -4.5394   -1.1936 C   0  0  0  0  0  0  0  0  0  0  0  0
   -5.7454   -5.0332   -0.9979 C   0  0  0  0  0  0  0  0  0  0  0  0
   -4.7055   -4.1016   -0.8912 C   0  0  0  0  0  0  0  0  0  0  0  0
   -3.4101   -4.5359   -0.6923 C   0  0  0  0  0  0  0  0  0  0  0  0
   -2.3882   -3.6211   -0.5847 C   0  0  0  0  0  0  0  0  0  0  0  0
   -2.5997   -2.2608   -0.6665 C   0  0  0  0  0  0  0  0  0  0  0  0
   -1.5712   -1.3851   -0.5427 C   0  0  0  0  0  0  0  0  0  0  0  0
   -1.8667   -0.0084   -0.6243 C   0  0  0  0  0  0  0  0  0  0  0  0
   -3.1377    0.4296   -0.8208 C   0  0  0  0  0  0  0  0  0  0  0  0
   -4.1705   -0.4738   -0.9457 C   0  0  0  0  0  0  0  0  0  0  0  0
   -5.4660   -0.0288   -1.1446 C   0  0  0  0  0  0  0  0  0  0  0  0
   -6.5108   -0.9220   -1.2653 C   0  0  0  0  0  0  0  0  0  0  0  0
   -6.2135   -2.2619   -1.1768 C   0  0  0  0  0  0  0  0  0  0  0  0
   -4.9526   -2.7531   -0.9800 C   0  0  0  0  0  0  0  0  0  0  0  0
   -3.9147   -1.8197   -0.8692 C   0  0  0  0  0  0  0  0  0  0  0  0
   -7.8248   -5.2402   -1.2739 H   0  0  0  0  0  0  0  0  0  0  0  0
   -5.5469   -6.1096   -0.9280 H   0  0  0  0  0  0  0  0  0  0  0  0
   -3.1852   -5.5931   -0.6182 H   0  0  0  0  0  0  0  0  0  0  0  0
   -1.3522   -3.9321   -0.4286 H   0  0  0  0  0  0  0  0  0  0  0  0
   -1.0272    0.6914   -0.5236 H   0  0  0  0  0  0  0  0  0  0  0  0
   -3.3902    1.4856   -0.8888 H   0  0  0  0  0  0  0  0  0  0  0  0
   -5.6379    1.0297   -1.2053 H   0  0  0  0  0  0  0  0  0  0  0  0
   -7.5128   -0.6113   -1.4350 H   0  0  0  0  0  0  0  0  0  0  0  0
    3.1849   -1.2756    3.0282 N   0  0  0  0  0  0  0  0  0  0  0  0
    2.6031   -1.4699    2.0277 C   0  0  0  0  0  0  0  0  0  0  0  0
    1.8901   -1.7322    0.7924 C   0  0  0  0  0  0  0  0  0  0  0  0
    0.5303   -1.5160    0.7664 C   0  0  0  0  0  0  0  0  0  0  0  0
   -0.1673   -1.7611   -0.3947 C   0  0  0  0  0  0  0  0  0  0  0  0
    0.4925   -2.2267   -1.5217 C   0  0  0  0  0  0  0  0  0  0  0  0
    1.8552   -2.4372   -1.4786 C   0  0  0  0  0  0  0  0  0  0  0  0
    2.5583   -2.1913   -0.3373 C   0  0  0  0  0  0  0  0  0  0  0  0
   -0.0115   -1.1615    1.6260 H   0  0  0  0  0  0  0  0  0  0  0  0
   -0.0959   -2.4142   -2.4182 H   0  0  0  0  0  0  0  0  0  0  0  0
    2.3476   -2.8011   -2.3777 H   0  0  0  0  0  0  0  0  0  0  0  0
    7.3403   -4.3352    2.5147 N   0  0  0  0  0  0  0  0  0  0  0  0
    6.8026   -3.7139    1.6987 C   0  0  0  0  0  0  0  0  0  0  0  0
    6.1163   -2.9437    0.6916 C   0  0  0  0  0  0  0  0  0  0  0  0
    4.7153   -2.9905    0.6531 C   0  0  0  0  0  0  0  0  0  0  0  0
    4.0153   -2.2885   -0.2751 C   0  0  0  0  0  0  0  0  0  0  0  0
    4.7565   -1.5153   -1.1977 C   0  0  0  0  0  0  0  0  0  0  0  0
    6.1140   -1.4841   -1.1431 C   0  0  0  0  0  0  0  0  0  0  0  0
    6.8481   -2.2016   -0.1888 C   0  0  0  0  0  0  0  0  0  0  0  0
    4.1726   -3.6086    1.3853 H   0  0  0  0  0  0  0  0  0  0  0  0
    4.2025   -0.9545   -1.9396 H   0  0  0  0  0  0  0  0  0  0  0  0
    6.7187   -0.8963   -1.8370 H   0  0  0  0  0  0  0  0  0  0  0  0
    8.3196   -2.1601   -0.2308 C   0  0  0  0  0  0  0  0  0  0  0  0
    9.0351   -3.2999   -0.4618 C   0  0  0  0  0  0  0  0  0  0  0  0
   10.3933   -3.2486   -0.6176 C   0  0  0  0  0  0  0  0  0  0  0  0
   11.0447   -2.0372   -0.5410 C   0  0  0  0  0  0  0  0  0  0  0  0
   12.4109   -1.9621   -0.7020 C   0  0  0  0  0  0  0  0  0  0  0  0
   13.0709   -0.7384   -0.6303 C   0  0  0  0  0  0  0  0  0  0  0  0
   12.3786    0.4326   -0.3970 C   0  0  0  0  0  0  0  0  0  0  0  0
   13.0197    1.6726   -0.3053 C   0  0  0  0  0  0  0  0  0  0  0  0
   12.2751    2.8062   -0.0450 C   0  0  0  0  0  0  0  0  0  0  0  0
   10.9176    2.7182    0.1196 C   0  0  0  0  0  0  0  0  0  0  0  0
   10.2463    1.4994    0.0309 C   0  0  0  0  0  0  0  0  0  0  0  0
    8.8788    1.4631    0.2028 C   0  0  0  0  0  0  0  0  0  0  0  0
    8.2610    0.2228    0.1047 C   0  0  0  0  0  0  0  0  0  0  0  0
    8.9598   -0.9359   -0.1478 C   0  0  0  0  0  0  0  0  0  0  0  0
   10.3485   -0.8711   -0.3062 C   0  0  0  0  0  0  0  0  0  0  0  0
   10.9875    0.3707   -0.2280 C   0  0  0  0  0  0  0  0  0  0  0  0
    8.5174   -4.2486   -0.5158 H   0  0  0  0  0  0  0  0  0  0  0  0
   10.9737   -4.1725   -0.8061 H   0  0  0  0  0  0  0  0  0  0  0  0
   13.0051   -2.8497   -0.8870 H   0  0  0  0  0  0  0  0  0  0  0  0
   14.1332   -0.7216   -0.7423 H   0  0  0  0  0  0  0  0  0  0  0  0
   12.7824    3.7602    0.0284 H   0  0  0  0  0  0  0  0  0  0  0  0
   10.3057    3.5964    0.3293 H   0  0  0  0  0  0  0  0  0  0  0  0
    8.3127    2.3368    0.4018 H   0  0  0  0  0  0  0  0  0  0  0  0
    7.2112    0.1836    0.2557 H   0  0  0  0  0  0  0  0  0  0  0  0
   14.4436    1.7629   -0.6066 C   0  0  0  0  0  0  0  0  0  0  0  0
   14.8814    1.3410   -1.8743 C   0  0  0  0  0  0  0  0  0  0  0  0
   16.1921    1.4408   -2.2556 C   0  0  0  0  0  0  0  0  0  0  0  0
   17.1494    1.9648   -1.4075 C   0  0  0  0  0  0  0  0  0  0  0  0
   18.4742    2.0656   -1.7746 C   0  0  0  0  0  0  0  0  0  0  0  0
   19.4391    2.5804   -0.9311 C   0  0  0  0  0  0  0  0  0  0  0  0
   19.0448    3.0083    0.3302 C   0  0  0  0  0  0  0  0  0  0  0  0
   19.9958    3.5231    1.1849 C   0  0  0  0  0  0  0  0  0  0  0  0
   19.6080    3.9531    2.4482 C   0  0  0  0  0  0  0  0  0  0  0  0
   18.2687    3.8442    2.8010 C   0  0  0  0  0  0  0  0  0  0  0  0
   17.3386    3.3291    1.9382 C   0  0  0  0  0  0  0  0  0  0  0  0
   15.9997    3.2243    2.3178 C   0  0  0  0  0  0  0  0  0  0  0  0
   15.0266    2.7042    1.4761 C   0  0  0  0  0  0  0  0  0  0  0  0
   15.4074    2.2807    0.2215 C   0  0  0  0  0  0  0  0  0  0  0  0
   16.7491    2.3895   -0.1539 C   0  0  0  0  0  0  0  0  0  0  0  0
   17.7140    2.9015    0.6848 C   0  0  0  0  0  0  0  0  0  0  0  0
   14.1425    0.9293   -2.5429 H   0  0  0  0  0  0  0  0  0  0  0  0
   16.5215    1.1163   -3.2354 H   0  0  0  0  0  0  0  0  0  0  0  0
   18.7486    1.7196   -2.7748 H   0  0  0  0  0  0  0  0  0  0  0  0
   20.4659    2.6365   -1.2689 H   0  0  0  0  0  0  0  0  0  0  0  0
   20.3392    4.3537    3.1171 H   0  0  0  0  0  0  0  0  0  0  0  0
   17.9900    4.1840    3.7857 H   0  0  0  0  0  0  0  0  0  0  0  0
   15.7204    3.5573    3.2826 H   0  0  0  0  0  0  0  0  0  0  0  0
   14.0058    2.6438    1.8415 H   0  0  0  0  0  0  0  0  0  0  0  0
  -20.7368    6.1219   -0.2366 H   0  0  0  0  0  0  0  0  0  0  0  0
   21.0315    3.5906    0.8782 H   0  0  0  0  0  0  0  0  0  0  0  0
  1  2  3  0
  2  3  1  0
  3  4  2  0
  4  5  1  0
  5  6  2  0
  6  7  1  0
  7  8  2  0
  8  3  1  0
  4  9  1  0
  6 10  1  0
  7 11  1  0
 12 13  3  0
 13 14  1  0
 14 15  2  0
 15 16  1  0
 16 17  2  0
 17 18  1  0
 18 19  2  0
 19 14  1  0
 15 20  1  0
 17 21  1  0
 18 22  1  0
 23 24  2  0
 24 25  1  0
 25 26  2  0
 26 27  1  0
 27 28  2  0
 28 29  1  0
 29 30  2  0
 30 31  1  0
 31 32  2  0
 32 33  1  0
 33 34  2  0
 34 35  1  0
 35 36  2  0
 36 37  1  0
 37 38  2  0
 36 23  1  0
 37 26  1  0
 38 29  1  0
 38 33  1  0
 24 39  1  0
 25 40  1  0
 27 41  1  0
 28 42  1  0
 31 43  1  0
 32 44  1  0
 34 45  1  0
 35 46  1  0
 47 48  2  0
 48 49  1  0
 49 50  2  0
 50 51  1  0
 51 52  2  0
 52 53  1  0
 53 54  2  0
 54 55  1  0
 55 56  2  0
 56 57  1  0
 57 58  2  0
 58 59  1  0
 59 60  2  0
 60 61  1  0
 61 62  2  0
 60 47  1  0
 61 50  1  0
 62 53  1  0
 62 57  1  0
 48 63  1  0
 49 64  1  0
 51 65  1  0
 52 66  1  0
 55 67  1  0
 56 68  1  0
 58 69  1  0
 59 70  1  0
 71 72  3  0
 72 73  1  0
 73 74  2  0
 74 75  1  0
 75 76  2  0
 76 77  1  0
 77 78  2  0
 78 73  1  0
 74 79  1  0
 76 80  1  0
 77 81  1  0
 82 83  3  0
 83 84  1  0
 84 85  2  0
 85 86  1  0
 86 87  2  0
 87 88  1  0
 88 89  2  0
 89 84  1  0
 85 90  1  0
 87 91  1  0
 88 92  1  0
 93 94  2  0
 94 95  1  0
 95 96  2  0
 96 97  1  0
 97 98  2  0
 98 99  1  0
 99100  2  0
100101  1  0
101102  2  0
102103  1  0
103104  2  0
104105  1  0
105106  2  0
106107  1  0
107108  2  0
106 93  1  0
107 96  1  0
108 99  1  0
108103  1  0
 94109  1  0
 95110  1  0
 97111  1  0
 98112  1  0
101113  1  0
102114  1  0
104115  1  0
105116  1  0
117118  2  0
118119  1  0
119120  2  0
120121  1  0
121122  2  0
122123  1  0
123124  2  0
124125  1  0
125126  2  0
126127  1  0
127128  2  0
128129  1  0
129130  2  0
130131  1  0
131132  2  0
130117  1  0
131120  1  0
132123  1  0
132127  1  0
118133  1  0
119134  1  0
121135  1  0
122136  1  0
125137  1  0
126138  1  0
128139  1  0
129140  1  0
  8 16  1  0
 19 23  1  0
 30 47  1  0
 54 75  1  0
 78 86  1  0
 89 93  1  0
100117  1  0
  5141  1  0
124142  1  0
M  END
