156

O         21.93150       -3.26170        0.02380
S         21.83690       -2.50120        1.31360
O         21.25160       -3.31900        2.41300
C         23.37410       -1.79770        1.75680
C         24.56140       -2.42000        2.07940
C         25.64840       -1.64150        2.40070
C         25.49590       -0.25760        2.38360
C         24.30680        0.34760        2.06090
C         23.17870       -0.43800        1.72790
C         21.87440       -0.00410        1.35450
C         21.36420        1.30050        1.20630
C         20.07640        1.51880        0.81240
C         19.19450        0.50680        0.53430
C         19.67640       -0.80070        0.67510
C         20.97270       -1.00100        1.07210
H         24.61590       -3.50730        2.07530
H         26.36410        0.32910        2.63980
H         24.25920        1.42630        2.07640
H         21.97260        2.17290        1.39750
H         19.70000        2.53840        0.70670
H         18.99060       -1.60840        0.45610
C         17.83280        0.72280        0.04270
C         17.66870        1.29640       -1.21720
C         16.41830        1.45440       -1.76960
C         15.27710        1.05530       -1.10310
C         14.03730        1.20660       -1.67650
C         12.87370        0.80180       -1.04160
C         12.99940        0.23110        0.20820
C         11.90920       -0.19590        0.91550
C         12.07090       -0.75240        2.18140
C         13.30610       -0.87940        2.71860
C         14.43660       -0.46800        2.04020
C         15.69140       -0.62480        2.61900
C         16.83090       -0.23200        1.95860
C         16.70160        0.32860        0.70560
C         15.41930        0.48840        0.14380
C         14.27360        0.08340        0.78710
H         18.57010        1.61370       -1.74120
H         16.27460        1.90030       -2.75870
H         13.89850        1.65080       -2.65660
H         11.91250        0.94560       -1.50490
H         11.17920       -1.06210        2.68750
H         13.43150       -1.30710        3.69060
H         15.73570       -1.06530        3.60390
H         17.78060       -0.36370        2.42600
C         10.57920       -0.22350        0.29390
C         10.43060       -0.96920       -0.88670
C          9.20730       -1.13200       -1.44330
C          8.09620       -0.58060       -0.87860
C          6.84580       -0.77090       -1.45870
C          5.71780       -0.23590       -0.89690
C          5.79780        0.50040        0.25890
C          4.68740        1.04080        0.80340
C          4.86370        1.81980        1.98030
C          6.05820        2.03360        2.56250
C          7.18880        1.45990        1.98520
C          8.42130        1.65430        2.56620
C          9.56520        1.09410        2.01510
C          9.46960        0.33860        0.86830
C          8.21900        0.15850        0.28050
C          7.07800        0.68860        0.83300
H         11.32610       -1.38620       -1.30710
H          9.09050       -1.70790       -2.36040
H          6.82560       -1.36340       -2.36860
H          4.79200       -0.37010       -1.42140
H          3.95920        2.25350        2.40700
H          6.18880        2.62890        3.45730
H          8.51790        2.24740        3.46880
H         10.51440        1.26620        2.48270
C          3.33170        0.87910        0.31610
C          2.74270       -0.28880       -0.09600
N          1.43570       -0.34130       -0.40050
C          0.60390        0.72740       -0.32900
C          1.18620        1.89690        0.08130
N          2.48970        1.96470        0.38850
H          3.30550       -1.21950       -0.14590
H          0.54780        2.77550        0.15170
O         -4.64740        3.00470        0.51050
S         -4.36710        2.48930       -0.84950
O         -4.23010        3.57270       -1.86990
C         -3.04000        1.37230       -0.88200
C         -1.70580        1.57460       -0.58090
C         -0.79820        0.54180       -0.66470
C         -1.29740       -0.67330       -1.06030
C         -2.59540       -0.86860       -1.35180
C         -3.54170        0.17090       -1.27350
C         -4.96500        0.14740       -1.52520
C         -5.77990       -0.92820       -1.93490
C         -7.12700       -0.75220       -2.11850
C         -7.77950        0.43320       -1.92790
C         -6.98330        1.50090       -1.52350
C         -5.61270        1.32660       -1.33580
H         -1.36870        2.56540       -0.28030
H         -0.55420       -1.48090       -1.12230
H         -2.93870       -1.84410       -1.66150
H         -5.31760       -1.90670       -2.10540
H         -7.74660       -1.60230       -2.44880
H         -7.41740        2.45870       -1.35860
C         -9.22000        0.63820       -2.11470
C         -9.65040        1.63670       -2.99200
C        -10.96560        1.86990       -3.25700
C        -11.92290        1.08890       -2.63580
C        -13.24330        1.34180       -2.91610
C        -14.18450        0.56280       -2.29390
C        -13.85410       -0.46640       -1.39930
C        -14.78450       -1.24090       -0.76810
C        -14.43170       -2.23110        0.11470
C        -13.10950       -2.46830        0.38590
C        -12.14350       -1.70580       -0.23510
C        -10.80010       -1.91410        0.02000
C         -9.85740       -1.12660       -0.61580
C        -10.18570       -0.12640       -1.50590
C        -11.55190        0.07900       -1.75140
C        -12.49890       -0.70920       -1.12380
H         -8.88330        2.23620       -3.46970
H        -11.27580        2.65130       -3.94050
H        -13.58320        2.10720       -3.58530
H        -15.25840        0.75180       -2.47070
H        -15.22330       -2.84630        0.61120
H        -12.80690       -3.25290        1.07890
H        -10.47040       -2.68030        0.70780
H         -8.79900       -1.28980       -0.37800
C        -16.19560       -1.04220       -1.14790
C        -16.59110       -1.27330       -2.44270
C        -17.90200       -1.15820       -2.78850
C        -18.83630       -0.80690       -1.83720
C        -20.14300       -0.67620       -2.17870
C        -21.04530       -0.31060       -1.20470
C        -20.69980       -0.07040        0.10420
C        -21.60430        0.30850        1.07080
C        -21.19940        0.55860        2.38570
C        -19.87280        0.41530        2.68330
C        -18.93510        0.04150        1.75760
C        -17.61650       -0.06890        2.12170
C        -16.71710       -0.43120        1.15530
C        -17.08280       -0.69250       -0.17390
C        -18.43900       -0.57100       -0.52300
C        -19.34460       -0.20640        0.44860
H        -15.82750       -1.55790       -3.21350
H        -18.20320       -1.34460       -3.82630
H        -20.41870       -0.86700       -3.20300
H        -22.05150       -0.19400       -1.54190
H        -21.94140        0.82960        3.10720
H        -19.56290        0.60570        3.70010
H        -17.26410        0.11390        3.12730
H        -15.64360       -0.50860        1.40850
C        -23.00500        0.52970        0.80360
C        -23.68810        1.48330        1.57100
N        -24.97570        1.70650        1.30130
C        -25.63260        1.05620        0.32890
C        -24.93590        0.11080       -0.42510
N        -23.65500       -0.11790       -0.16270
H        -23.20120        2.02420        2.33710
H        -25.44150       -0.41790       -1.21750
H         26.60350       -2.06140        2.66250
H        -26.67270        1.20940        0.07810
