
     RDKit          3D

110123  0  0  0  0  0  0  0  0999 V2000
   15.4794   -2.8423   -2.7270 N   0  0  0  0  0  0  0  0  0  0  0  0
   16.2096   -2.4634   -1.9002 C   0  0  0  0  0  0  0  0  0  0  0  0
   17.1311   -1.9897   -0.8977 C   0  0  0  0  0  0  0  0  0  0  0  0
   18.4882   -2.2756   -1.0301 C   0  0  0  0  0  0  0  0  0  0  0  0
   19.3774   -1.8084   -0.0774 C   0  0  0  0  0  0  0  0  0  0  0  0
   18.9610   -1.0570    1.0123 C   0  0  0  0  0  0  0  0  0  0  0  0
   17.6052   -0.7995    1.1016 C   0  0  0  0  0  0  0  0  0  0  0  0
   16.7083   -1.2464    0.1824 C   0  0  0  0  0  0  0  0  0  0  0  0
   18.8081   -2.8550   -1.8773 H   0  0  0  0  0  0  0  0  0  0  0  0
   19.6774   -0.7047    1.7349 H   0  0  0  0  0  0  0  0  0  0  0  0
   17.2873   -0.2156    1.9510 H   0  0  0  0  0  0  0  0  0  0  0  0
   11.3336   -3.7100    0.3046 N   0  0  0  0  0  0  0  0  0  0  0  0
   12.0522   -2.7797    0.3666 C   0  0  0  0  0  0  0  0  0  0  0  0
   12.9733   -1.6642    0.4415 C   0  0  0  0  0  0  0  0  0  0  0  0
   14.3432   -1.9403    0.3062 C   0  0  0  0  0  0  0  0  0  0  0  0
   15.2814   -0.9389    0.3674 C   0  0  0  0  0  0  0  0  0  0  0  0
   14.8149    0.3405    0.5688 C   0  0  0  0  0  0  0  0  0  0  0  0
   13.4721    0.6672    0.7095 C   0  0  0  0  0  0  0  0  0  0  0  0
   12.5469   -0.3667    0.6405 C   0  0  0  0  0  0  0  0  0  0  0  0
   14.6282   -2.9745    0.1622 H   0  0  0  0  0  0  0  0  0  0  0  0
   15.5392    1.1601    0.6217 H   0  0  0  0  0  0  0  0  0  0  0  0
   13.1725    1.6896    0.8659 H   0  0  0  0  0  0  0  0  0  0  0  0
   11.1263   -0.0850    0.7401 C   0  0  0  0  0  0  0  0  0  0  0  0
   10.6668    1.2043    0.8953 C   0  0  0  0  0  0  0  0  0  0  0  0
    9.3206    1.4816    0.9500 N   0  0  0  0  0  0  0  0  0  0  0  0
    8.4043    0.5136    0.8539 C   0  0  0  0  0  0  0  0  0  0  0  0
    8.8748   -0.7723    0.7026 C   0  0  0  0  0  0  0  0  0  0  0  0
   10.1766   -1.0122    0.6529 N   0  0  0  0  0  0  0  0  0  0  0  0
   11.2970    2.0728    0.9858 H   0  0  0  0  0  0  0  0  0  0  0  0
    8.2109   -1.6397    0.6453 H   0  0  0  0  0  0  0  0  0  0  0  0
    6.9929    0.7929    0.9731 C   0  0  0  0  0  0  0  0  0  0  0  0
    6.5232    1.5592    2.0440 C   0  0  0  0  0  0  0  0  0  0  0  0
    5.2048    1.8850    2.2306 C   0  0  0  0  0  0  0  0  0  0  0  0
    4.2615    1.4441    1.3193 C   0  0  0  0  0  0  0  0  0  0  0  0
    2.9460    1.7745    1.5176 C   0  0  0  0  0  0  0  0  0  0  0  0
    2.0090    1.3294    0.5975 C   0  0  0  0  0  0  0  0  0  0  0  0
    2.3550    0.5760   -0.4988 C   0  0  0  0  0  0  0  0  0  0  0  0
    1.3938    0.1738   -1.3845 C   0  0  0  0  0  0  0  0  0  0  0  0
    1.8239   -0.5855   -2.4918 C   0  0  0  0  0  0  0  0  0  0  0  0
    3.1409   -0.8824   -2.6382 C   0  0  0  0  0  0  0  0  0  0  0  0
    4.1068   -0.4703   -1.7354 C   0  0  0  0  0  0  0  0  0  0  0  0
    5.4278   -0.7834   -1.9187 C   0  0  0  0  0  0  0  0  0  0  0  0
    6.4117   -0.3699   -1.0169 C   0  0  0  0  0  0  0  0  0  0  0  0
    6.0209    0.3649    0.0684 C   0  0  0  0  0  0  0  0  0  0  0  0
    4.6827    0.6880    0.2455 C   0  0  0  0  0  0  0  0  0  0  0  0
    3.7112    0.2666   -0.6525 C   0  0  0  0  0  0  0  0  0  0  0  0
    7.2898    1.8929    2.7454 H   0  0  0  0  0  0  0  0  0  0  0  0
    4.9096    2.4822    3.0871 H   0  0  0  0  0  0  0  0  0  0  0  0
    2.6264    2.3655    2.3628 H   0  0  0  0  0  0  0  0  0  0  0  0
    0.9703    1.5712    0.7491 H   0  0  0  0  0  0  0  0  0  0  0  0
    1.0456   -0.8882   -3.1720 H   0  0  0  0  0  0  0  0  0  0  0  0
    3.5004   -1.4606   -3.4760 H   0  0  0  0  0  0  0  0  0  0  0  0
    5.7678   -1.3705   -2.7752 H   0  0  0  0  0  0  0  0  0  0  0  0
    7.4363   -0.6011   -1.2167 H   0  0  0  0  0  0  0  0  0  0  0  0
   -2.8987    4.3419   -1.0926 N   0  0  0  0  0  0  0  0  0  0  0  0
   -2.4891    3.2728   -1.1410 C   0  0  0  0  0  0  0  0  0  0  0  0
   -1.9559    1.9396   -1.1817 C   0  0  0  0  0  0  0  0  0  0  0  0
   -0.5642    1.7533   -1.2478 C   0  0  0  0  0  0  0  0  0  0  0  0
   -0.0167    0.4991   -1.2825 C   0  0  0  0  0  0  0  0  0  0  0  0
   -0.8690   -0.6052   -1.2493 C   0  0  0  0  0  0  0  0  0  0  0  0
   -2.2201   -0.4155   -1.1849 C   0  0  0  0  0  0  0  0  0  0  0  0
   -2.8048    0.8643   -1.1495 C   0  0  0  0  0  0  0  0  0  0  0  0
    0.0922    2.5990   -1.2733 H   0  0  0  0  0  0  0  0  0  0  0  0
   -0.4739   -1.6333   -1.2726 H   0  0  0  0  0  0  0  0  0  0  0  0
   -2.8824   -1.2669   -1.1613 H   0  0  0  0  0  0  0  0  0  0  0  0
   -7.5626    3.2474   -3.7658 N   0  0  0  0  0  0  0  0  0  0  0  0
   -7.0548    2.6155   -2.9309 C   0  0  0  0  0  0  0  0  0  0  0  0
   -6.3908    1.8128   -1.9244 C   0  0  0  0  0  0  0  0  0  0  0  0
   -4.9855    1.7522   -1.9608 C   0  0  0  0  0  0  0  0  0  0  0  0
   -4.2682    0.9638   -1.1162 C   0  0  0  0  0  0  0  0  0  0  0  0
   -5.0057    0.2085   -0.2003 C   0  0  0  0  0  0  0  0  0  0  0  0
   -6.3665    0.2654   -0.1611 C   0  0  0  0  0  0  0  0  0  0  0  0
   -7.1176    1.0829   -1.0347 C   0  0  0  0  0  0  0  0  0  0  0  0
   -4.4807    2.3762   -2.7192 H   0  0  0  0  0  0  0  0  0  0  0  0
   -4.4067   -0.4095    0.4547 H   0  0  0  0  0  0  0  0  0  0  0  0
   -6.9238   -0.3331    0.5605 H   0  0  0  0  0  0  0  0  0  0  0  0
   -8.5645    1.0240   -0.9546 C   0  0  0  0  0  0  0  0  0  0  0  0
   -9.4476    2.0289   -1.1463 C   0  0  0  0  0  0  0  0  0  0  0  0
  -10.7837    1.8698   -0.9914 N   0  0  0  0  0  0  0  0  0  0  0  0
  -11.3067    0.6530   -0.6222 C   0  0  0  0  0  0  0  0  0  0  0  0
  -10.4317   -0.3741   -0.4218 C   0  0  0  0  0  0  0  0  0  0  0  0
   -9.1120   -0.1787   -0.5859 N   0  0  0  0  0  0  0  0  0  0  0  0
   -9.0653    3.0300   -1.3890 H   0  0  0  0  0  0  0  0  0  0  0  0
  -10.7952   -1.3886   -0.1574 H   0  0  0  0  0  0  0  0  0  0  0  0
  -12.7395    0.4805   -0.5935 C   0  0  0  0  0  0  0  0  0  0  0  0
  -13.4712    1.0125   -1.6709 C   0  0  0  0  0  0  0  0  0  0  0  0
  -14.8228    0.9075   -1.7106 C   0  0  0  0  0  0  0  0  0  0  0  0
  -15.5410    0.2800   -0.7026 C   0  0  0  0  0  0  0  0  0  0  0  0
  -16.9283    0.2086   -0.7962 C   0  0  0  0  0  0  0  0  0  0  0  0
  -17.6049   -0.4035    0.2101 C   0  0  0  0  0  0  0  0  0  0  0  0
  -16.9517   -0.9426    1.3005 C   0  0  0  0  0  0  0  0  0  0  0  0
  -17.6557   -1.5393    2.3158 C   0  0  0  0  0  0  0  0  0  0  0  0
  -17.0048   -2.0608    3.4166 C   0  0  0  0  0  0  0  0  0  0  0  0
  -15.6224   -1.9545    3.4463 C   0  0  0  0  0  0  0  0  0  0  0  0
  -14.8739   -1.3646    2.4495 C   0  0  0  0  0  0  0  0  0  0  0  0
  -13.5145   -1.2627    2.5152 C   0  0  0  0  0  0  0  0  0  0  0  0
  -12.7722   -0.6540    1.5096 C   0  0  0  0  0  0  0  0  0  0  0  0
  -13.4209   -0.1380    0.4125 C   0  0  0  0  0  0  0  0  0  0  0  0
  -14.8280   -0.2433    0.3638 C   0  0  0  0  0  0  0  0  0  0  0  0
  -15.5655   -0.8516    1.3581 C   0  0  0  0  0  0  0  0  0  0  0  0
  -12.9225    1.5046   -2.4677 H   0  0  0  0  0  0  0  0  0  0  0  0
  -15.3954    1.3139   -2.5385 H   0  0  0  0  0  0  0  0  0  0  0  0
  -17.4200    0.6414   -1.6683 H   0  0  0  0  0  0  0  0  0  0  0  0
  -18.6898   -0.4768    0.1630 H   0  0  0  0  0  0  0  0  0  0  0  0
  -17.5243   -2.5273    4.2164 H   0  0  0  0  0  0  0  0  0  0  0  0
  -15.0510   -2.3527    4.2991 H   0  0  0  0  0  0  0  0  0  0  0  0
  -13.0123   -1.6832    3.3983 H   0  0  0  0  0  0  0  0  0  0  0  0
  -11.7138   -0.5791    1.6651 H   0  0  0  0  0  0  0  0  0  0  0  0
   20.4236   -2.0476   -0.2041 H   0  0  0  0  0  0  0  0  0  0  0  0
  -18.7506   -1.6057    2.2660 H   0  0  0  0  0  0  0  0  0  0  0  0
  1  2  3  0
  2  3  1  0
  3  4  2  0
  4  5  1  0
  5  6  2  0
  6  7  1  0
  7  8  2  0
  8  3  1  0
  4  9  1  0
  6 10  1  0
  7 11  1  0
 12 13  3  0
 13 14  1  0
 14 15  2  0
 15 16  1  0
 16 17  2  0
 17 18  1  0
 18 19  2  0
 19 14  1  0
 15 20  1  0
 17 21  1  0
 18 22  1  0
 23 24  2  0
 24 25  1  0
 25 26  2  0
 26 27  1  0
 27 28  2  0
 28 23  1  0
 24 29  1  0
 27 30  1  0
 31 32  2  0
 32 33  1  0
 33 34  2  0
 34 35  1  0
 35 36  2  0
 36 37  1  0
 37 38  2  0
 38 39  1  0
 39 40  2  0
 40 41  1  0
 41 42  2  0
 42 43  1  0
 43 44  2  0
 44 45  1  0
 45 46  2  0
 44 31  1  0
 45 34  1  0
 46 37  1  0
 46 41  1  0
 32 47  1  0
 33 48  1  0
 35 49  1  0
 36 50  1  0
 39 51  1  0
 40 52  1  0
 42 53  1  0
 43 54  1  0
 55 56  3  0
 56 57  1  0
 57 58  2  0
 58 59  1  0
 59 60  2  0
 60 61  1  0
 61 62  2  0
 62 57  1  0
 58 63  1  0
 60 64  1  0
 61 65  1  0
 66 67  3  0
 67 68  1  0
 68 69  2  0
 69 70  1  0
 70 71  2  0
 71 72  1  0
 72 73  2  0
 73 68  1  0
 69 74  1  0
 71 75  1  0
 72 76  1  0
 77 78  2  0
 78 79  1  0
 79 80  2  0
 80 81  1  0
 81 82  2  0
 82 77  1  0
 78 83  1  0
 81 84  1  0
 85 86  2  0
 86 87  1  0
 87 88  2  0
 88 89  1  0
 89 90  2  0
 90 91  1  0
 91 92  2  0
 92 93  1  0
 93 94  2  0
 94 95  1  0
 95 96  2  0
 96 97  1  0
 97 98  2  0
 98 99  1  0
 99100  2  0
 98 85  1  0
 99 88  1  0
100 91  1  0
100 95  1  0
 86101  1  0
 87102  1  0
 89103  1  0
 90104  1  0
 93105  1  0
 94106  1  0
 96107  1  0
 97108  1  0
  8 16  1  0
 19 23  1  0
 26 31  1  0
 38 59  1  0
 62 70  1  0
 73 77  1  0
 80 85  1  0
  5109  1  0
 92110  1  0
M  END
