78

N        -13.63790       -0.94820        3.36830
C        -13.97230       -0.76910        2.29050
C        -14.41500       -0.51010        0.95690
C        -15.79350       -0.47490        0.70260
C        -16.26340       -0.15320       -0.54710
C        -15.38320        0.14310       -1.58190
C        -14.05330        0.10890       -1.34150
C        -13.54820       -0.22080       -0.06450
H        -16.44390       -0.70960        1.52520
H        -15.81070        0.38960       -2.54070
H        -13.35840        0.34200       -2.15580
C        -12.09860       -0.16640        0.02480
C        -11.31690       -0.97270        0.79460
N         -9.94020       -0.89710        0.76340
C         -9.30020       -0.02770       -0.02750
C        -10.07700        0.79320       -0.81370
N        -11.40870        0.71410       -0.77650
H        -11.74640       -1.73360        1.42770
H         -9.56190        1.49500       -1.45370
C         -7.85390        0.04160       -0.05410
C         -7.04650       -0.76810        0.71480
N         -5.70610       -0.65220        0.63790
C         -5.10240        0.23440       -0.17030
C         -5.92440        1.03340       -0.92920
N         -7.27060        0.93510       -0.86870
H         -7.52170       -1.48160        1.36510
H         -5.46840        1.75400       -1.58670
N         -0.36380        2.87170       -2.58480
C         -0.88610        2.13660       -1.87130
C         -1.54710        1.19430       -0.99580
C         -2.94130        1.16220       -0.98530
C         -3.64850        0.28770       -0.19250
C         -2.91200       -0.56640        0.60180
C         -1.52120       -0.55180        0.60770
C         -0.83790        0.33200       -0.19420
H         -3.44810        1.85270       -1.62560
H         -3.47150       -1.26100        1.23170
H         -1.01760       -1.26080        1.26610
N          3.71280       -3.30330       -0.58540
C          3.24780       -2.23200       -0.44720
C          2.65000       -0.93630       -0.28020
C          1.26350       -0.87550       -0.31300
C          0.60660        0.32960       -0.15910
C          1.33100        1.47220        0.02760
C          2.73230        1.39630        0.05880
C          3.41990        0.21700       -0.09090
H          0.72730       -1.80180       -0.46220
H          0.82050        2.41180        0.15540
H          3.24510        2.33880        0.20960
C          4.87460        0.15370       -0.05810
C          5.64850        1.28400        0.15570
N          7.00770        1.24790        0.19010
C          7.64490        0.08600        0.01300
C          6.89460       -1.04630       -0.20020
N          5.56140       -0.97810       -0.22840
H          5.16690        2.23880        0.30360
H          7.44440       -1.98800       -0.34260
C          9.12200        0.01800        0.04520
C          9.86800        1.15680        0.25980
N         11.21450        1.10460        0.29040
C         11.88920       -0.06360        0.11260
C         11.13370       -1.18880       -0.09980
N          9.76900       -1.14000       -0.13170
H          9.34890        2.09370        0.40280
H         11.62830       -2.13850       -0.24600
N         16.88020       -3.28310       -0.31350
C         16.26880       -2.32480       -0.15550
C         15.49640       -1.12120        0.03190
C         14.09620       -1.18350       -0.01870
C         13.35170       -0.05040        0.15700
C         14.03870        1.14200        0.38360
C         15.41580        1.19980        0.43280
C         16.17030        0.05880        0.25610
H         13.62530       -2.13880       -0.19810
H         13.43780        2.04050        0.52300
H         15.94520        2.14320        0.61190
H        -17.33430       -0.13730       -0.70050
H         17.25310        0.10200        0.29440
