
     RDKit          3D

 78 85  0  0  0  0  0  0  0  0999 V2000
  -13.6379   -0.9482    3.3683 N   0  0  0  0  0  0  0  0  0  0  0  0
  -13.9723   -0.7691    2.2905 C   0  0  0  0  0  0  0  0  0  0  0  0
  -14.4150   -0.5101    0.9569 C   0  0  0  0  0  0  0  0  0  0  0  0
  -15.7935   -0.4749    0.7026 C   0  0  0  0  0  0  0  0  0  0  0  0
  -16.2634   -0.1532   -0.5471 C   0  0  0  0  0  0  0  0  0  0  0  0
  -15.3832    0.1431   -1.5819 C   0  0  0  0  0  0  0  0  0  0  0  0
  -14.0533    0.1089   -1.3415 C   0  0  0  0  0  0  0  0  0  0  0  0
  -13.5482   -0.2208   -0.0645 C   0  0  0  0  0  0  0  0  0  0  0  0
  -16.4439   -0.7096    1.5252 H   0  0  0  0  0  0  0  0  0  0  0  0
  -15.8107    0.3896   -2.5407 H   0  0  0  0  0  0  0  0  0  0  0  0
  -13.3584    0.3420   -2.1558 H   0  0  0  0  0  0  0  0  0  0  0  0
  -12.0986   -0.1664    0.0248 C   0  0  0  0  0  0  0  0  0  0  0  0
  -11.3169   -0.9727    0.7946 C   0  0  0  0  0  0  0  0  0  0  0  0
   -9.9402   -0.8971    0.7634 N   0  0  0  0  0  0  0  0  0  0  0  0
   -9.3002   -0.0277   -0.0275 C   0  0  0  0  0  0  0  0  0  0  0  0
  -10.0770    0.7932   -0.8137 C   0  0  0  0  0  0  0  0  0  0  0  0
  -11.4087    0.7141   -0.7765 N   0  0  0  0  0  0  0  0  0  0  0  0
  -11.7464   -1.7336    1.4277 H   0  0  0  0  0  0  0  0  0  0  0  0
   -9.5619    1.4950   -1.4537 H   0  0  0  0  0  0  0  0  0  0  0  0
   -7.8539    0.0416   -0.0541 C   0  0  0  0  0  0  0  0  0  0  0  0
   -7.0465   -0.7681    0.7148 C   0  0  0  0  0  0  0  0  0  0  0  0
   -5.7061   -0.6522    0.6379 N   0  0  0  0  0  0  0  0  0  0  0  0
   -5.1024    0.2344   -0.1703 C   0  0  0  0  0  0  0  0  0  0  0  0
   -5.9244    1.0334   -0.9292 C   0  0  0  0  0  0  0  0  0  0  0  0
   -7.2706    0.9351   -0.8687 N   0  0  0  0  0  0  0  0  0  0  0  0
   -7.5217   -1.4816    1.3651 H   0  0  0  0  0  0  0  0  0  0  0  0
   -5.4684    1.7540   -1.5867 H   0  0  0  0  0  0  0  0  0  0  0  0
   -0.3638    2.8717   -2.5848 N   0  0  0  0  0  0  0  0  0  0  0  0
   -0.8861    2.1366   -1.8713 C   0  0  0  0  0  0  0  0  0  0  0  0
   -1.5471    1.1943   -0.9958 C   0  0  0  0  0  0  0  0  0  0  0  0
   -2.9413    1.1622   -0.9853 C   0  0  0  0  0  0  0  0  0  0  0  0
   -3.6485    0.2877   -0.1925 C   0  0  0  0  0  0  0  0  0  0  0  0
   -2.9120   -0.5664    0.6018 C   0  0  0  0  0  0  0  0  0  0  0  0
   -1.5212   -0.5518    0.6077 C   0  0  0  0  0  0  0  0  0  0  0  0
   -0.8379    0.3320   -0.1942 C   0  0  0  0  0  0  0  0  0  0  0  0
   -3.4481    1.8527   -1.6256 H   0  0  0  0  0  0  0  0  0  0  0  0
   -3.4715   -1.2610    1.2317 H   0  0  0  0  0  0  0  0  0  0  0  0
   -1.0176   -1.2608    1.2661 H   0  0  0  0  0  0  0  0  0  0  0  0
    3.7128   -3.3033   -0.5854 N   0  0  0  0  0  0  0  0  0  0  0  0
    3.2478   -2.2320   -0.4472 C   0  0  0  0  0  0  0  0  0  0  0  0
    2.6500   -0.9363   -0.2802 C   0  0  0  0  0  0  0  0  0  0  0  0
    1.2635   -0.8755   -0.3130 C   0  0  0  0  0  0  0  0  0  0  0  0
    0.6066    0.3296   -0.1591 C   0  0  0  0  0  0  0  0  0  0  0  0
    1.3310    1.4722    0.0276 C   0  0  0  0  0  0  0  0  0  0  0  0
    2.7323    1.3963    0.0588 C   0  0  0  0  0  0  0  0  0  0  0  0
    3.4199    0.2170   -0.0909 C   0  0  0  0  0  0  0  0  0  0  0  0
    0.7273   -1.8018   -0.4622 H   0  0  0  0  0  0  0  0  0  0  0  0
    0.8205    2.4118    0.1554 H   0  0  0  0  0  0  0  0  0  0  0  0
    3.2451    2.3388    0.2096 H   0  0  0  0  0  0  0  0  0  0  0  0
    4.8746    0.1537   -0.0581 C   0  0  0  0  0  0  0  0  0  0  0  0
    5.6485    1.2840    0.1557 C   0  0  0  0  0  0  0  0  0  0  0  0
    7.0077    1.2479    0.1901 N   0  0  0  0  0  0  0  0  0  0  0  0
    7.6449    0.0860    0.0130 C   0  0  0  0  0  0  0  0  0  0  0  0
    6.8946   -1.0463   -0.2002 C   0  0  0  0  0  0  0  0  0  0  0  0
    5.5614   -0.9781   -0.2284 N   0  0  0  0  0  0  0  0  0  0  0  0
    5.1669    2.2388    0.3036 H   0  0  0  0  0  0  0  0  0  0  0  0
    7.4444   -1.9880   -0.3426 H   0  0  0  0  0  0  0  0  0  0  0  0
    9.1220    0.0180    0.0452 C   0  0  0  0  0  0  0  0  0  0  0  0
    9.8680    1.1568    0.2598 C   0  0  0  0  0  0  0  0  0  0  0  0
   11.2145    1.1046    0.2904 N   0  0  0  0  0  0  0  0  0  0  0  0
   11.8892   -0.0636    0.1126 C   0  0  0  0  0  0  0  0  0  0  0  0
   11.1337   -1.1888   -0.0998 C   0  0  0  0  0  0  0  0  0  0  0  0
    9.7690   -1.1400   -0.1317 N   0  0  0  0  0  0  0  0  0  0  0  0
    9.3489    2.0937    0.4028 H   0  0  0  0  0  0  0  0  0  0  0  0
   11.6283   -2.1385   -0.2460 H   0  0  0  0  0  0  0  0  0  0  0  0
   16.8802   -3.2831   -0.3135 N   0  0  0  0  0  0  0  0  0  0  0  0
   16.2688   -2.3248   -0.1555 C   0  0  0  0  0  0  0  0  0  0  0  0
   15.4964   -1.1212    0.0319 C   0  0  0  0  0  0  0  0  0  0  0  0
   14.0962   -1.1835   -0.0187 C   0  0  0  0  0  0  0  0  0  0  0  0
   13.3517   -0.0504    0.1570 C   0  0  0  0  0  0  0  0  0  0  0  0
   14.0387    1.1420    0.3836 C   0  0  0  0  0  0  0  0  0  0  0  0
   15.4158    1.1998    0.4328 C   0  0  0  0  0  0  0  0  0  0  0  0
   16.1703    0.0588    0.2561 C   0  0  0  0  0  0  0  0  0  0  0  0
   13.6253   -2.1388   -0.1981 H   0  0  0  0  0  0  0  0  0  0  0  0
   13.4378    2.0405    0.5230 H   0  0  0  0  0  0  0  0  0  0  0  0
   15.9452    2.1432    0.6119 H   0  0  0  0  0  0  0  0  0  0  0  0
  -17.3343   -0.1373   -0.7005 H   0  0  0  0  0  0  0  0  0  0  0  0
   17.2531    0.1020    0.2944 H   0  0  0  0  0  0  0  0  0  0  0  0
  1  2  3  0
  2  3  1  0
  3  4  2  0
  4  5  1  0
  5  6  2  0
  6  7  1  0
  7  8  2  0
  8  3  1  0
  4  9  1  0
  6 10  1  0
  7 11  1  0
 12 13  2  0
 13 14  1  0
 14 15  2  0
 15 16  1  0
 16 17  2  0
 17 12  1  0
 13 18  1  0
 16 19  1  0
 20 21  2  0
 21 22  1  0
 22 23  2  0
 23 24  1  0
 24 25  2  0
 25 20  1  0
 21 26  1  0
 24 27  1  0
 28 29  3  0
 29 30  1  0
 30 31  2  0
 31 32  1  0
 32 33  2  0
 33 34  1  0
 34 35  2  0
 35 30  1  0
 31 36  1  0
 33 37  1  0
 34 38  1  0
 39 40  3  0
 40 41  1  0
 41 42  2  0
 42 43  1  0
 43 44  2  0
 44 45  1  0
 45 46  2  0
 46 41  1  0
 42 47  1  0
 44 48  1  0
 45 49  1  0
 50 51  2  0
 51 52  1  0
 52 53  2  0
 53 54  1  0
 54 55  2  0
 55 50  1  0
 51 56  1  0
 54 57  1  0
 58 59  2  0
 59 60  1  0
 60 61  2  0
 61 62  1  0
 62 63  2  0
 63 58  1  0
 59 64  1  0
 62 65  1  0
 66 67  3  0
 67 68  1  0
 68 69  2  0
 69 70  1  0
 70 71  2  0
 71 72  1  0
 72 73  2  0
 73 68  1  0
 69 74  1  0
 71 75  1  0
 72 76  1  0
  8 12  1  0
 15 20  1  0
 23 32  1  0
 35 43  1  0
 46 50  1  0
 53 58  1  0
 61 70  1  0
  5 77  1  0
 73 78  1  0
M  END
