136

N        -19.07840        4.48600        0.26190
C        -19.38370        3.42490       -0.02970
C        -19.77030        2.07990       -0.37960
C        -21.10750        1.79540       -0.50140
C        -21.60100        0.54070       -0.82990
C        -20.64890       -0.43950       -1.03600
C        -19.30870       -0.19550       -0.92370
C        -18.86560        1.06860       -0.59450
H        -21.82730        2.60630       -0.32720
H        -21.01640       -1.43460       -1.29550
H        -18.55060       -0.97350       -1.08900
C        -17.45220        1.39140       -0.52390
C        -16.96610        2.38960       -1.38170
C        -15.62000        2.65500       -1.39840
C        -14.76120        1.93420       -0.56520
C        -13.41780        2.19250       -0.59050
C        -12.49330        1.49270        0.21940
C        -12.96660        0.52200        1.06380
C        -12.06500       -0.15640        1.86360
C        -12.59590       -1.12850        2.71140
C        -13.96390       -1.39510        2.74120
C        -14.82050       -0.70040        1.93200
C        -16.17890       -0.95730        1.94960
C        -17.06300       -0.26090        1.12860
C        -16.58090        0.70120        0.28600
C        -15.22710        0.96360        0.27580
C        -14.34210        0.27470        1.07410
H        -17.65840        2.91860       -2.00660
H        -15.22990        3.42360       -2.05680
H        -13.04250        2.95120       -1.23980
H        -11.45780        1.76090        0.11820
H        -11.98260       -1.69410        3.39080
H        -14.34030       -2.15860        3.41460
H        -16.52400       -1.72040        2.62490
H        -18.12140       -0.52000        1.22380
C        -10.61440        0.00000        1.82890
C         -9.86870       -1.14340        2.23090
N         -8.54670       -1.16890        2.18200
C         -7.84750       -0.07450        1.73190
C         -8.57920        1.01460        1.35490
N         -9.91680        1.01790        1.41480
H        -10.38540       -2.02530        2.57350
H         -8.07840        1.93560        1.03250
C         -6.41440       -0.22410        1.78610
C         -5.85570       -0.84600        2.90810
C         -4.53530       -1.09850        3.05870
C         -3.68200       -0.71440        2.02620
C         -2.33720       -0.96940        2.12830
C         -1.46740       -0.62800        1.13060
C         -1.93550       -0.01400       -0.01240
C         -1.07120        0.32340       -1.01900
C         -1.59550        0.94640       -2.15970
C         -2.92560        1.20890       -2.27630
C         -3.80080        0.86920       -1.27240
C         -5.14090        1.11070       -1.39220
C         -5.98400        0.74370       -0.37600
C         -5.54690        0.13550        0.79740
C         -4.16890       -0.10270        0.90050
C         -3.31100        0.25620       -0.13240
H         -6.55070       -1.13300        3.69000
H         -4.10130       -1.57200        3.92490
H         -1.97410       -1.45060        3.02890
H         -0.40150       -0.81110        1.18960
H         -0.88120        1.20080       -2.93120
H         -3.34280        1.69440       -3.16690
H         -5.48020        1.58720       -2.31580
H         -7.04030        0.89960       -0.53630
N          2.69680       -4.21530       -1.45180
C          2.40150       -3.11020       -1.36470
C          2.02150       -1.74780       -1.23350
C          0.71070       -1.38100       -1.14370
C          0.33780       -0.04000       -1.01770
C          1.34300        0.88940       -0.98080
C          2.67570        0.53820       -1.06900
C          3.02280       -0.80260       -1.20140
H         -0.11330       -2.08490       -1.16330
H          1.11090        1.93340       -0.88100
H          3.45590        1.30290       -1.04000
C          4.40950       -1.10110       -1.46580
C          4.76450       -1.59460       -2.73110
C          6.08610       -1.76680       -3.01180
C          7.08510       -1.47240       -2.09470
C          8.40460       -1.66280       -2.44610
C          9.42210       -1.37600       -1.55460
C          9.10780       -0.89770       -0.30920
C         10.12590       -0.65270        0.57830
C          9.76970       -0.21310        1.85960
C          8.44990       -0.03040        2.20610
C          7.44320       -0.27820        1.29430
C          6.10940       -0.10340        1.61960
C          5.09610       -0.35760        0.72170
C          5.39220       -0.81410       -0.55710
C          6.74010       -0.99430       -0.85600
C          7.76370       -0.71500        0.02660
H          3.95740       -1.80800       -3.41240
H          6.38220       -2.13860       -3.98590
H          8.67550       -2.03480       -3.42420
H         10.46310       -1.55800       -1.85050
H         10.56940       -0.02090        2.56100
H          8.14510        0.30990        3.19560
H          5.81850        0.24010        2.60470
H          4.06890       -0.20790        1.01480
C         11.54910       -0.81070        0.30300
C         12.20050       -0.16770       -0.74050
N         13.53160       -0.31680       -0.81120
C         14.25430       -1.02910        0.03810
C         13.59260       -1.67330        1.08620
N         12.27180       -1.53110        1.16570
H         11.63320        0.41500       -1.42850
H         14.16680       -2.25120        1.78170
C         15.71130       -1.16220        0.00130
C         16.23910       -2.40860        0.39270
C         17.59140       -2.60560        0.43520
C         18.49300       -1.61520        0.10470
C         19.85370       -1.85230        0.16880
C         20.75120       -0.85020       -0.14930
C         20.26780        0.38420       -0.53100
C         21.17850        1.37490       -0.83110
C         20.66780        2.62130       -1.20130
C         19.31500        2.84150       -1.26100
C         18.42070        1.82660       -0.95450
C         17.05980        2.05520       -1.00400
C         16.12260        1.05930       -0.69000
C         16.60700       -0.17810       -0.32450
C         17.98760       -0.39080       -0.27660
C         18.91180        0.59080       -0.58780
H         15.52730       -3.19900        0.65220
H         17.95620       -3.59980        0.74550
H         20.16690       -2.84350        0.47310
H         21.81790       -1.05410       -0.09620
H         21.37670        3.42100       -1.44290
H         18.94140        3.81710       -1.55280
H         16.66010        3.02890       -1.29520
H         15.08680        1.31400       -0.73160
H        -22.66030        0.38730       -0.90830
H         22.24660        1.27480       -0.80460
