
     RDKit          3D

136155  0  0  0  0  0  0  0  0999 V2000
  -19.0784    4.4860    0.2619 N   0  0  0  0  0  0  0  0  0  0  0  0
  -19.3837    3.4249   -0.0297 C   0  0  0  0  0  0  0  0  0  0  0  0
  -19.7703    2.0799   -0.3796 C   0  0  0  0  0  0  0  0  0  0  0  0
  -21.1075    1.7954   -0.5014 C   0  0  0  0  0  0  0  0  0  0  0  0
  -21.6010    0.5407   -0.8299 C   0  0  0  0  0  0  0  0  0  0  0  0
  -20.6489   -0.4395   -1.0360 C   0  0  0  0  0  0  0  0  0  0  0  0
  -19.3087   -0.1955   -0.9237 C   0  0  0  0  0  0  0  0  0  0  0  0
  -18.8656    1.0686   -0.5945 C   0  0  0  0  0  0  0  0  0  0  0  0
  -21.8273    2.6063   -0.3272 H   0  0  0  0  0  0  0  0  0  0  0  0
  -21.0164   -1.4346   -1.2955 H   0  0  0  0  0  0  0  0  0  0  0  0
  -18.5506   -0.9735   -1.0890 H   0  0  0  0  0  0  0  0  0  0  0  0
  -17.4522    1.3914   -0.5239 C   0  0  0  0  0  0  0  0  0  0  0  0
  -16.9661    2.3896   -1.3817 C   0  0  0  0  0  0  0  0  0  0  0  0
  -15.6200    2.6550   -1.3984 C   0  0  0  0  0  0  0  0  0  0  0  0
  -14.7612    1.9342   -0.5652 C   0  0  0  0  0  0  0  0  0  0  0  0
  -13.4178    2.1925   -0.5905 C   0  0  0  0  0  0  0  0  0  0  0  0
  -12.4933    1.4927    0.2194 C   0  0  0  0  0  0  0  0  0  0  0  0
  -12.9666    0.5220    1.0638 C   0  0  0  0  0  0  0  0  0  0  0  0
  -12.0650   -0.1564    1.8636 C   0  0  0  0  0  0  0  0  0  0  0  0
  -12.5959   -1.1285    2.7114 C   0  0  0  0  0  0  0  0  0  0  0  0
  -13.9639   -1.3951    2.7412 C   0  0  0  0  0  0  0  0  0  0  0  0
  -14.8205   -0.7004    1.9320 C   0  0  0  0  0  0  0  0  0  0  0  0
  -16.1789   -0.9573    1.9496 C   0  0  0  0  0  0  0  0  0  0  0  0
  -17.0630   -0.2609    1.1286 C   0  0  0  0  0  0  0  0  0  0  0  0
  -16.5809    0.7012    0.2860 C   0  0  0  0  0  0  0  0  0  0  0  0
  -15.2271    0.9636    0.2758 C   0  0  0  0  0  0  0  0  0  0  0  0
  -14.3421    0.2747    1.0741 C   0  0  0  0  0  0  0  0  0  0  0  0
  -17.6584    2.9186   -2.0066 H   0  0  0  0  0  0  0  0  0  0  0  0
  -15.2299    3.4236   -2.0568 H   0  0  0  0  0  0  0  0  0  0  0  0
  -13.0425    2.9512   -1.2398 H   0  0  0  0  0  0  0  0  0  0  0  0
  -11.4578    1.7609    0.1182 H   0  0  0  0  0  0  0  0  0  0  0  0
  -11.9826   -1.6941    3.3908 H   0  0  0  0  0  0  0  0  0  0  0  0
  -14.3403   -2.1586    3.4146 H   0  0  0  0  0  0  0  0  0  0  0  0
  -16.5240   -1.7204    2.6249 H   0  0  0  0  0  0  0  0  0  0  0  0
  -18.1214   -0.5200    1.2238 H   0  0  0  0  0  0  0  0  0  0  0  0
  -10.6144    0.0000    1.8289 C   0  0  0  0  0  0  0  0  0  0  0  0
   -9.8687   -1.1434    2.2309 C   0  0  0  0  0  0  0  0  0  0  0  0
   -8.5467   -1.1689    2.1820 N   0  0  0  0  0  0  0  0  0  0  0  0
   -7.8475   -0.0745    1.7319 C   0  0  0  0  0  0  0  0  0  0  0  0
   -8.5792    1.0146    1.3549 C   0  0  0  0  0  0  0  0  0  0  0  0
   -9.9168    1.0179    1.4148 N   0  0  0  0  0  0  0  0  0  0  0  0
  -10.3854   -2.0253    2.5735 H   0  0  0  0  0  0  0  0  0  0  0  0
   -8.0784    1.9356    1.0325 H   0  0  0  0  0  0  0  0  0  0  0  0
   -6.4144   -0.2241    1.7861 C   0  0  0  0  0  0  0  0  0  0  0  0
   -5.8557   -0.8460    2.9081 C   0  0  0  0  0  0  0  0  0  0  0  0
   -4.5353   -1.0985    3.0587 C   0  0  0  0  0  0  0  0  0  0  0  0
   -3.6820   -0.7144    2.0262 C   0  0  0  0  0  0  0  0  0  0  0  0
   -2.3372   -0.9694    2.1283 C   0  0  0  0  0  0  0  0  0  0  0  0
   -1.4674   -0.6280    1.1306 C   0  0  0  0  0  0  0  0  0  0  0  0
   -1.9355   -0.0140   -0.0124 C   0  0  0  0  0  0  0  0  0  0  0  0
   -1.0712    0.3234   -1.0190 C   0  0  0  0  0  0  0  0  0  0  0  0
   -1.5955    0.9464   -2.1597 C   0  0  0  0  0  0  0  0  0  0  0  0
   -2.9256    1.2089   -2.2763 C   0  0  0  0  0  0  0  0  0  0  0  0
   -3.8008    0.8692   -1.2724 C   0  0  0  0  0  0  0  0  0  0  0  0
   -5.1409    1.1107   -1.3922 C   0  0  0  0  0  0  0  0  0  0  0  0
   -5.9840    0.7437   -0.3760 C   0  0  0  0  0  0  0  0  0  0  0  0
   -5.5469    0.1355    0.7974 C   0  0  0  0  0  0  0  0  0  0  0  0
   -4.1689   -0.1027    0.9005 C   0  0  0  0  0  0  0  0  0  0  0  0
   -3.3110    0.2562   -0.1324 C   0  0  0  0  0  0  0  0  0  0  0  0
   -6.5507   -1.1330    3.6900 H   0  0  0  0  0  0  0  0  0  0  0  0
   -4.1013   -1.5720    3.9249 H   0  0  0  0  0  0  0  0  0  0  0  0
   -1.9741   -1.4506    3.0289 H   0  0  0  0  0  0  0  0  0  0  0  0
   -0.4015   -0.8111    1.1896 H   0  0  0  0  0  0  0  0  0  0  0  0
   -0.8812    1.2008   -2.9312 H   0  0  0  0  0  0  0  0  0  0  0  0
   -3.3428    1.6944   -3.1669 H   0  0  0  0  0  0  0  0  0  0  0  0
   -5.4802    1.5872   -2.3158 H   0  0  0  0  0  0  0  0  0  0  0  0
   -7.0403    0.8996   -0.5363 H   0  0  0  0  0  0  0  0  0  0  0  0
    2.6968   -4.2153   -1.4518 N   0  0  0  0  0  0  0  0  0  0  0  0
    2.4015   -3.1102   -1.3647 C   0  0  0  0  0  0  0  0  0  0  0  0
    2.0215   -1.7478   -1.2335 C   0  0  0  0  0  0  0  0  0  0  0  0
    0.7107   -1.3810   -1.1437 C   0  0  0  0  0  0  0  0  0  0  0  0
    0.3378   -0.0400   -1.0177 C   0  0  0  0  0  0  0  0  0  0  0  0
    1.3430    0.8894   -0.9808 C   0  0  0  0  0  0  0  0  0  0  0  0
    2.6757    0.5382   -1.0690 C   0  0  0  0  0  0  0  0  0  0  0  0
    3.0228   -0.8026   -1.2014 C   0  0  0  0  0  0  0  0  0  0  0  0
   -0.1133   -2.0849   -1.1633 H   0  0  0  0  0  0  0  0  0  0  0  0
    1.1109    1.9334   -0.8810 H   0  0  0  0  0  0  0  0  0  0  0  0
    3.4559    1.3029   -1.0400 H   0  0  0  0  0  0  0  0  0  0  0  0
    4.4095   -1.1011   -1.4658 C   0  0  0  0  0  0  0  0  0  0  0  0
    4.7645   -1.5946   -2.7311 C   0  0  0  0  0  0  0  0  0  0  0  0
    6.0861   -1.7668   -3.0118 C   0  0  0  0  0  0  0  0  0  0  0  0
    7.0851   -1.4724   -2.0947 C   0  0  0  0  0  0  0  0  0  0  0  0
    8.4046   -1.6628   -2.4461 C   0  0  0  0  0  0  0  0  0  0  0  0
    9.4221   -1.3760   -1.5546 C   0  0  0  0  0  0  0  0  0  0  0  0
    9.1078   -0.8977   -0.3092 C   0  0  0  0  0  0  0  0  0  0  0  0
   10.1259   -0.6527    0.5783 C   0  0  0  0  0  0  0  0  0  0  0  0
    9.7697   -0.2131    1.8596 C   0  0  0  0  0  0  0  0  0  0  0  0
    8.4499   -0.0304    2.2061 C   0  0  0  0  0  0  0  0  0  0  0  0
    7.4432   -0.2782    1.2943 C   0  0  0  0  0  0  0  0  0  0  0  0
    6.1094   -0.1034    1.6196 C   0  0  0  0  0  0  0  0  0  0  0  0
    5.0961   -0.3576    0.7217 C   0  0  0  0  0  0  0  0  0  0  0  0
    5.3922   -0.8141   -0.5571 C   0  0  0  0  0  0  0  0  0  0  0  0
    6.7401   -0.9943   -0.8560 C   0  0  0  0  0  0  0  0  0  0  0  0
    7.7637   -0.7150    0.0266 C   0  0  0  0  0  0  0  0  0  0  0  0
    3.9574   -1.8080   -3.4124 H   0  0  0  0  0  0  0  0  0  0  0  0
    6.3822   -2.1386   -3.9859 H   0  0  0  0  0  0  0  0  0  0  0  0
    8.6755   -2.0348   -3.4242 H   0  0  0  0  0  0  0  0  0  0  0  0
   10.4631   -1.5580   -1.8505 H   0  0  0  0  0  0  0  0  0  0  0  0
   10.5694   -0.0209    2.5610 H   0  0  0  0  0  0  0  0  0  0  0  0
    8.1451    0.3099    3.1956 H   0  0  0  0  0  0  0  0  0  0  0  0
    5.8185    0.2401    2.6047 H   0  0  0  0  0  0  0  0  0  0  0  0
    4.0689   -0.2079    1.0148 H   0  0  0  0  0  0  0  0  0  0  0  0
   11.5491   -0.8107    0.3030 C   0  0  0  0  0  0  0  0  0  0  0  0
   12.2005   -0.1677   -0.7405 C   0  0  0  0  0  0  0  0  0  0  0  0
   13.5316   -0.3168   -0.8112 N   0  0  0  0  0  0  0  0  0  0  0  0
   14.2543   -1.0291    0.0381 C   0  0  0  0  0  0  0  0  0  0  0  0
   13.5926   -1.6733    1.0862 C   0  0  0  0  0  0  0  0  0  0  0  0
   12.2718   -1.5311    1.1657 N   0  0  0  0  0  0  0  0  0  0  0  0
   11.6332    0.4150   -1.4285 H   0  0  0  0  0  0  0  0  0  0  0  0
   14.1668   -2.2512    1.7817 H   0  0  0  0  0  0  0  0  0  0  0  0
   15.7113   -1.1622    0.0013 C   0  0  0  0  0  0  0  0  0  0  0  0
   16.2391   -2.4086    0.3927 C   0  0  0  0  0  0  0  0  0  0  0  0
   17.5914   -2.6056    0.4352 C   0  0  0  0  0  0  0  0  0  0  0  0
   18.4930   -1.6152    0.1047 C   0  0  0  0  0  0  0  0  0  0  0  0
   19.8537   -1.8523    0.1688 C   0  0  0  0  0  0  0  0  0  0  0  0
   20.7512   -0.8502   -0.1493 C   0  0  0  0  0  0  0  0  0  0  0  0
   20.2678    0.3842   -0.5310 C   0  0  0  0  0  0  0  0  0  0  0  0
   21.1785    1.3749   -0.8311 C   0  0  0  0  0  0  0  0  0  0  0  0
   20.6678    2.6213   -1.2013 C   0  0  0  0  0  0  0  0  0  0  0  0
   19.3150    2.8415   -1.2610 C   0  0  0  0  0  0  0  0  0  0  0  0
   18.4207    1.8266   -0.9545 C   0  0  0  0  0  0  0  0  0  0  0  0
   17.0598    2.0552   -1.0040 C   0  0  0  0  0  0  0  0  0  0  0  0
   16.1226    1.0593   -0.6900 C   0  0  0  0  0  0  0  0  0  0  0  0
   16.6070   -0.1781   -0.3245 C   0  0  0  0  0  0  0  0  0  0  0  0
   17.9876   -0.3908   -0.2766 C   0  0  0  0  0  0  0  0  0  0  0  0
   18.9118    0.5908   -0.5878 C   0  0  0  0  0  0  0  0  0  0  0  0
   15.5273   -3.1990    0.6522 H   0  0  0  0  0  0  0  0  0  0  0  0
   17.9562   -3.5998    0.7455 H   0  0  0  0  0  0  0  0  0  0  0  0
   20.1669   -2.8435    0.4731 H   0  0  0  0  0  0  0  0  0  0  0  0
   21.8179   -1.0541   -0.0962 H   0  0  0  0  0  0  0  0  0  0  0  0
   21.3767    3.4210   -1.4429 H   0  0  0  0  0  0  0  0  0  0  0  0
   18.9414    3.8171   -1.5528 H   0  0  0  0  0  0  0  0  0  0  0  0
   16.6601    3.0289   -1.2952 H   0  0  0  0  0  0  0  0  0  0  0  0
   15.0868    1.3140   -0.7316 H   0  0  0  0  0  0  0  0  0  0  0  0
  -22.6603    0.3873   -0.9083 H   0  0  0  0  0  0  0  0  0  0  0  0
   22.2466    1.2748   -0.8046 H   0  0  0  0  0  0  0  0  0  0  0  0
  1  2  3  0
  2  3  1  0
  3  4  2  0
  4  5  1  0
  5  6  2  0
  6  7  1  0
  7  8  2  0
  8  3  1  0
  4  9  1  0
  6 10  1  0
  7 11  1  0
 12 13  2  0
 13 14  1  0
 14 15  2  0
 15 16  1  0
 16 17  2  0
 17 18  1  0
 18 19  2  0
 19 20  1  0
 20 21  2  0
 21 22  1  0
 22 23  2  0
 23 24  1  0
 24 25  2  0
 25 26  1  0
 26 27  2  0
 25 12  1  0
 26 15  1  0
 27 18  1  0
 27 22  1  0
 13 28  1  0
 14 29  1  0
 16 30  1  0
 17 31  1  0
 20 32  1  0
 21 33  1  0
 23 34  1  0
 24 35  1  0
 36 37  2  0
 37 38  1  0
 38 39  2  0
 39 40  1  0
 40 41  2  0
 41 36  1  0
 37 42  1  0
 40 43  1  0
 44 45  2  0
 45 46  1  0
 46 47  2  0
 47 48  1  0
 48 49  2  0
 49 50  1  0
 50 51  2  0
 51 52  1  0
 52 53  2  0
 53 54  1  0
 54 55  2  0
 55 56  1  0
 56 57  2  0
 57 58  1  0
 58 59  2  0
 57 44  1  0
 58 47  1  0
 59 50  1  0
 59 54  1  0
 45 60  1  0
 46 61  1  0
 48 62  1  0
 49 63  1  0
 52 64  1  0
 53 65  1  0
 55 66  1  0
 56 67  1  0
 68 69  3  0
 69 70  1  0
 70 71  2  0
 71 72  1  0
 72 73  2  0
 73 74  1  0
 74 75  2  0
 75 70  1  0
 71 76  1  0
 73 77  1  0
 74 78  1  0
 79 80  2  0
 80 81  1  0
 81 82  2  0
 82 83  1  0
 83 84  2  0
 84 85  1  0
 85 86  2  0
 86 87  1  0
 87 88  2  0
 88 89  1  0
 89 90  2  0
 90 91  1  0
 91 92  2  0
 92 93  1  0
 93 94  2  0
 92 79  1  0
 93 82  1  0
 94 85  1  0
 94 89  1  0
 80 95  1  0
 81 96  1  0
 83 97  1  0
 84 98  1  0
 87 99  1  0
 88100  1  0
 90101  1  0
 91102  1  0
103104  2  0
104105  1  0
105106  2  0
106107  1  0
107108  2  0
108103  1  0
104109  1  0
107110  1  0
111112  2  0
112113  1  0
113114  2  0
114115  1  0
115116  2  0
116117  1  0
117118  2  0
118119  1  0
119120  2  0
120121  1  0
121122  2  0
122123  1  0
123124  2  0
124125  1  0
125126  2  0
124111  1  0
125114  1  0
126117  1  0
126121  1  0
112127  1  0
113128  1  0
115129  1  0
116130  1  0
119131  1  0
120132  1  0
122133  1  0
123134  1  0
  8 12  1  0
 19 36  1  0
 39 44  1  0
 51 72  1  0
 75 79  1  0
 86103  1  0
106111  1  0
  5135  1  0
118136  1  0
M  END
