
     RDKit          3D

118133  0  0  0  0  0  0  0  0999 V2000
  -24.1679   -1.2238    0.0270 C   0  0  0  0  0  0  0  0  0  0  0  0
  -23.8351   -0.0652    0.6851 C   0  0  0  0  0  0  0  0  0  0  0  0
  -22.5154    0.2950    0.8346 N   0  0  0  0  0  0  0  0  0  0  0  0
  -21.5501   -0.4621    0.3521 C   0  0  0  0  0  0  0  0  0  0  0  0
  -21.8954   -1.6138   -0.3020 C   0  0  0  0  0  0  0  0  0  0  0  0
  -23.1956   -1.9869   -0.4606 N   0  0  0  0  0  0  0  0  0  0  0  0
  -24.6117    0.5679    1.0834 H   0  0  0  0  0  0  0  0  0  0  0  0
  -21.1925   -2.3074   -0.7401 H   0  0  0  0  0  0  0  0  0  0  0  0
  -16.1659   -2.6335    0.6552 O   0  0  0  0  0  0  0  0  0  0  0  0
  -16.3558   -1.4270   -0.2185 S   0  0  0  0  0  0  0  0  0  0  0  0
  -16.2882   -1.7651   -1.6692 O   0  0  0  0  0  0  0  0  0  0  0  0
  -17.7989   -0.5368    0.1928 C   0  0  0  0  0  0  0  0  0  0  0  0
  -19.1082   -0.9151    0.0920 C   0  0  0  0  0  0  0  0  0  0  0  0
  -20.1550   -0.0894    0.4791 C   0  0  0  0  0  0  0  0  0  0  0  0
  -19.7553    1.1494    0.9764 C   0  0  0  0  0  0  0  0  0  0  0  0
  -18.4530    1.5075    1.0666 C   0  0  0  0  0  0  0  0  0  0  0  0
  -17.4052    0.6660    0.6719 C   0  0  0  0  0  0  0  0  0  0  0  0
  -15.9855    0.8797    0.6906 C   0  0  0  0  0  0  0  0  0  0  0  0
  -15.2763    2.0200    1.1056 C   0  0  0  0  0  0  0  0  0  0  0  0
  -13.8876    2.0483    1.0294 C   0  0  0  0  0  0  0  0  0  0  0  0
  -13.1378    0.9945    0.5576 C   0  0  0  0  0  0  0  0  0  0  0  0
  -13.8333   -0.1132    0.1569 C   0  0  0  0  0  0  0  0  0  0  0  0
  -15.2236   -0.1578    0.2257 C   0  0  0  0  0  0  0  0  0  0  0  0
  -19.3915   -1.8982   -0.2930 H   0  0  0  0  0  0  0  0  0  0  0  0
  -20.5360    1.8319    1.2967 H   0  0  0  0  0  0  0  0  0  0  0  0
  -18.2513    2.5137    1.4730 H   0  0  0  0  0  0  0  0  0  0  0  0
  -15.7891    2.8967    1.4838 H   0  0  0  0  0  0  0  0  0  0  0  0
  -13.3498    2.9463    1.3642 H   0  0  0  0  0  0  0  0  0  0  0  0
  -13.3231   -0.9975   -0.2304 H   0  0  0  0  0  0  0  0  0  0  0  0
   -8.4444   -1.8417   -1.4044 O   0  0  0  0  0  0  0  0  0  0  0  0
   -8.4596   -0.3509   -1.6074 S   0  0  0  0  0  0  0  0  0  0  0  0
   -8.6759    0.0180   -3.0364 O   0  0  0  0  0  0  0  0  0  0  0  0
   -9.6074    0.4259   -0.5326 C   0  0  0  0  0  0  0  0  0  0  0  0
  -10.9902    0.3328   -0.4896 C   0  0  0  0  0  0  0  0  0  0  0  0
  -11.6730    1.0233    0.4519 C   0  0  0  0  0  0  0  0  0  0  0  0
  -10.9692    1.8023    1.3445 C   0  0  0  0  0  0  0  0  0  0  0  0
   -9.6073    1.8864    1.2935 C   0  0  0  0  0  0  0  0  0  0  0  0
   -8.8540    1.1851    0.3300 C   0  0  0  0  0  0  0  0  0  0  0  0
   -7.4407    1.1499    0.1139 C   0  0  0  0  0  0  0  0  0  0  0  0
   -6.4452    1.8156    0.8173 C   0  0  0  0  0  0  0  0  0  0  0  0
   -5.1089    1.7128    0.5147 C   0  0  0  0  0  0  0  0  0  0  0  0
   -4.6869    0.9241   -0.5266 C   0  0  0  0  0  0  0  0  0  0  0  0
   -5.6671    0.2570   -1.2341 C   0  0  0  0  0  0  0  0  0  0  0  0
   -7.0169    0.3631   -0.9263 C   0  0  0  0  0  0  0  0  0  0  0  0
  -11.4811   -0.2875   -1.2064 H   0  0  0  0  0  0  0  0  0  0  0  0
  -11.4990    2.3644    2.1069 H   0  0  0  0  0  0  0  0  0  0  0  0
   -9.0976    2.5251    2.0329 H   0  0  0  0  0  0  0  0  0  0  0  0
   -6.6905    2.4678    1.6593 H   0  0  0  0  0  0  0  0  0  0  0  0
   -4.3932    2.2806    1.1183 H   0  0  0  0  0  0  0  0  0  0  0  0
   -5.3530   -0.3567   -2.0481 H   0  0  0  0  0  0  0  0  0  0  0  0
   -3.2826    0.7893   -0.8436 C   0  0  0  0  0  0  0  0  0  0  0  0
   -2.2557    1.3649   -0.1047 C   0  0  0  0  0  0  0  0  0  0  0  0
   -0.9725    1.1867   -0.4241 N   0  0  0  0  0  0  0  0  0  0  0  0
   -0.5604    0.4480   -1.4666 C   0  0  0  0  0  0  0  0  0  0  0  0
   -1.5761   -0.1368   -2.2186 C   0  0  0  0  0  0  0  0  0  0  0  0
   -2.8555    0.0489   -1.8914 N   0  0  0  0  0  0  0  0  0  0  0  0
   -2.5229    1.9809    0.7567 H   0  0  0  0  0  0  0  0  0  0  0  0
   -1.2744   -0.7491   -3.0739 H   0  0  0  0  0  0  0  0  0  0  0  0
    0.8512    0.2814   -1.7503 C   0  0  0  0  0  0  0  0  0  0  0  0
    1.7585    0.8957   -0.9030 C   0  0  0  0  0  0  0  0  0  0  0  0
    3.0790    0.7793   -1.0859 N   0  0  0  0  0  0  0  0  0  0  0  0
    3.5821    0.0417   -2.1277 C   0  0  0  0  0  0  0  0  0  0  0  0
    2.6736   -0.5473   -2.9416 C   0  0  0  0  0  0  0  0  0  0  0  0
    1.3148   -0.4370   -2.7660 N   0  0  0  0  0  0  0  0  0  0  0  0
    1.3801    1.4836   -0.0782 H   0  0  0  0  0  0  0  0  0  0  0  0
    3.0002   -1.1467   -3.7839 H   0  0  0  0  0  0  0  0  0  0  0  0
    8.5786    2.4138   -0.3871 O   0  0  0  0  0  0  0  0  0  0  0  0
    8.4310    0.9192   -0.2429 S   0  0  0  0  0  0  0  0  0  0  0  0
    8.2474    0.4826    1.1611 O   0  0  0  0  0  0  0  0  0  0  0  0
    7.2244    0.3045   -1.3325 C   0  0  0  0  0  0  0  0  0  0  0  0
    5.8681    0.4522   -1.2863 C   0  0  0  0  0  0  0  0  0  0  0  0
    5.0231   -0.1066   -2.2555 C   0  0  0  0  0  0  0  0  0  0  0  0
    5.6564   -0.8007   -3.2409 C   0  0  0  0  0  0  0  0  0  0  0  0
    7.0427   -0.9507   -3.2861 C   0  0  0  0  0  0  0  0  0  0  0  0
    7.8549   -0.3849   -2.3039 C   0  0  0  0  0  0  0  0  0  0  0  0
    9.2829   -0.4981   -2.1246 C   0  0  0  0  0  0  0  0  0  0  0  0
   10.2239   -1.1971   -2.8918 C   0  0  0  0  0  0  0  0  0  0  0  0
   11.5586   -1.2747   -2.5367 C   0  0  0  0  0  0  0  0  0  0  0  0
   12.0349   -0.6679   -1.4073 C   0  0  0  0  0  0  0  0  0  0  0  0
   11.1262    0.0315   -0.6386 C   0  0  0  0  0  0  0  0  0  0  0  0
    9.7883    0.0995   -1.0109 C   0  0  0  0  0  0  0  0  0  0  0  0
    5.3638    1.0091   -0.4920 H   0  0  0  0  0  0  0  0  0  0  0  0
    5.0488   -1.2566   -4.0319 H   0  0  0  0  0  0  0  0  0  0  0  0
    7.4655   -1.5237   -4.1200 H   0  0  0  0  0  0  0  0  0  0  0  0
    9.9170   -1.7103   -3.8161 H   0  0  0  0  0  0  0  0  0  0  0  0
   12.2527   -1.8333   -3.1690 H   0  0  0  0  0  0  0  0  0  0  0  0
   11.4513    0.5243    0.2463 H   0  0  0  0  0  0  0  0  0  0  0  0
   16.6370    2.4494    0.4554 O   0  0  0  0  0  0  0  0  0  0  0  0
   16.2335    1.2576    1.2560 S   0  0  0  0  0  0  0  0  0  0  0  0
   15.5374    1.6532    2.5313 O   0  0  0  0  0  0  0  0  0  0  0  0
   15.2678    0.1243    0.3339 C   0  0  0  0  0  0  0  0  0  0  0  0
   13.9880    0.2729   -0.2276 C   0  0  0  0  0  0  0  0  0  0  0  0
   13.4246   -0.7780   -0.9104 C   0  0  0  0  0  0  0  0  0  0  0  0
   14.1476   -1.9350   -1.0164 C   0  0  0  0  0  0  0  0  0  0  0  0
   15.4024   -2.0597   -0.4578 C   0  0  0  0  0  0  0  0  0  0  0  0
   16.0055   -1.0196    0.2441 C   0  0  0  0  0  0  0  0  0  0  0  0
   17.2769   -0.9873    0.9349 C   0  0  0  0  0  0  0  0  0  0  0  0
   18.2249   -2.0003    1.0655 C   0  0  0  0  0  0  0  0  0  0  0  0
   19.3652   -1.8186    1.7969 C   0  0  0  0  0  0  0  0  0  0  0  0
   19.6589   -0.6199    2.4583 C   0  0  0  0  0  0  0  0  0  0  0  0
   18.7053    0.3541    2.3072 C   0  0  0  0  0  0  0  0  0  0  0  0
   17.5540    0.1650    1.5661 C   0  0  0  0  0  0  0  0  0  0  0  0
   13.4605    1.1850   -0.1278 H   0  0  0  0  0  0  0  0  0  0  0  0
   13.6790   -2.7570   -1.5708 H   0  0  0  0  0  0  0  0  0  0  0  0
   15.9280   -3.0216   -0.5778 H   0  0  0  0  0  0  0  0  0  0  0  0
   18.0793   -2.9849    0.5817 H   0  0  0  0  0  0  0  0  0  0  0  0
   20.1109   -2.6094    1.9001 H   0  0  0  0  0  0  0  0  0  0  0  0
   18.8856    1.3141    2.8085 H   0  0  0  0  0  0  0  0  0  0  0  0
   20.8757   -0.4989    3.2440 C   0  0  0  0  0  0  0  0  0  0  0  0
   21.2284    0.6551    3.8799 C   0  0  0  0  0  0  0  0  0  0  0  0
   22.3796    0.7234    4.6151 N   0  0  0  0  0  0  0  0  0  0  0  0
   23.1944   -0.3365    4.7346 C   0  0  0  0  0  0  0  0  0  0  0  0
   22.8340   -1.5024    4.0888 C   0  0  0  0  0  0  0  0  0  0  0  0
   21.6985   -1.5643    3.3648 N   0  0  0  0  0  0  0  0  0  0  0  0
   20.5969    1.5226    3.8029 H   0  0  0  0  0  0  0  0  0  0  0  0
   23.5206   -2.3543    4.2025 H   0  0  0  0  0  0  0  0  0  0  0  0
  -25.2102   -1.5078   -0.0902 H   0  0  0  0  0  0  0  0  0  0  0  0
   24.1249   -0.3172    5.3190 H   0  0  0  0  0  0  0  0  0  0  0  0
  1  2  2  0
  2  3  1  0
  3  4  2  0
  4  5  1  0
  5  6  2  0
  6  1  1  0
  2  7  1  0
  5  8  1  0
  9 10  2  0
 10 11  2  0
 10 12  1  0
 12 13  2  0
 13 14  1  0
 14 15  2  0
 15 16  1  0
 16 17  2  0
 17 18  1  0
 18 19  2  0
 19 20  1  0
 20 21  2  0
 21 22  1  0
 22 23  2  0
 23 10  1  0
 17 12  1  0
 23 18  1  0
 13 24  1  0
 15 25  1  0
 16 26  1  0
 19 27  1  0
 20 28  1  0
 22 29  1  0
 30 31  2  0
 31 32  2  0
 31 33  1  0
 33 34  2  0
 34 35  1  0
 35 36  2  0
 36 37  1  0
 37 38  2  0
 38 39  1  0
 39 40  2  0
 40 41  1  0
 41 42  2  0
 42 43  1  0
 43 44  2  0
 44 31  1  0
 38 33  1  0
 44 39  1  0
 34 45  1  0
 36 46  1  0
 37 47  1  0
 40 48  1  0
 41 49  1  0
 43 50  1  0
 51 52  2  0
 52 53  1  0
 53 54  2  0
 54 55  1  0
 55 56  2  0
 56 51  1  0
 52 57  1  0
 55 58  1  0
 59 60  2  0
 60 61  1  0
 61 62  2  0
 62 63  1  0
 63 64  2  0
 64 59  1  0
 60 65  1  0
 63 66  1  0
 67 68  2  0
 68 69  2  0
 68 70  1  0
 70 71  2  0
 71 72  1  0
 72 73  2  0
 73 74  1  0
 74 75  2  0
 75 76  1  0
 76 77  2  0
 77 78  1  0
 78 79  2  0
 79 80  1  0
 80 81  2  0
 81 68  1  0
 75 70  1  0
 81 76  1  0
 71 82  1  0
 73 83  1  0
 74 84  1  0
 77 85  1  0
 78 86  1  0
 80 87  1  0
 88 89  2  0
 89 90  2  0
 89 91  1  0
 91 92  2  0
 92 93  1  0
 93 94  2  0
 94 95  1  0
 95 96  2  0
 96 97  1  0
 97 98  2  0
 98 99  1  0
 99100  2  0
100101  1  0
101102  2  0
102 89  1  0
 96 91  1  0
102 97  1  0
 92103  1  0
 94104  1  0
 95105  1  0
 98106  1  0
 99107  1  0
101108  1  0
109110  2  0
110111  1  0
111112  2  0
112113  1  0
113114  2  0
114109  1  0
110115  1  0
113116  1  0
  4 14  1  0
 21 35  1  0
 42 51  1  0
 54 59  1  0
 62 72  1  0
 79 93  1  0
100109  1  0
  1117  1  0
112118  1  0
M  END
