84

N         13.36860        2.03600        2.30710
C         13.77550        1.29060        1.50980
C         14.27610        0.34880        0.54350
C         15.65950        0.12760        0.53320
C         16.23880       -0.76460       -0.34470
C         15.43750       -1.44690       -1.22380
C         14.08140       -1.22690       -1.21020
C         13.47860       -0.33800       -0.34050
H         16.27810        0.68050        1.23980
H         15.86960       -2.16070       -1.93110
H         13.45230       -1.76690       -1.90490
N          9.24760        3.78800       -0.27460
C          9.61060        2.69390       -0.33250
C         10.08530        1.33860       -0.36690
C         11.46890        1.14180       -0.38090
C         12.04790       -0.09580       -0.33600
C         11.14570       -1.16310       -0.27460
C          9.80630       -1.00920       -0.26090
C          9.24730        0.27410       -0.30960
H         12.10900        2.01040       -0.43800
H         11.56940       -2.17040       -0.23610
H          9.15290       -1.87590       -0.21260
C          7.79250        0.31000       -0.24530
C          6.99950        1.21270       -0.87330
N          5.63110        1.11660       -0.81020
C          5.00510        0.14260       -0.13890
C          5.80550       -0.77820        0.49920
N          7.13530       -0.68460        0.43920
H          7.40830        2.01840       -1.48380
H          5.33690       -1.59550        1.06200
N          0.24720        2.93120       -2.09620
C          0.77860        2.07650       -1.52390
C          1.45590        1.03710       -0.80280
C          2.83990        1.05100       -0.79730
C          3.54840        0.08970       -0.11370
C          2.82900       -0.87370        0.55580
C          1.45310       -0.89550        0.55560
C          0.73070        0.07650       -0.13610
H          3.40060        1.82540       -1.33590
H          3.33000       -1.64740        1.10530
H          0.91380       -1.65980        1.08730
N         -4.17500        0.23610       -3.53210
C         -3.59770        0.14950       -2.52250
C         -2.87020        0.06630       -1.28360
C         -1.47840        0.09910       -1.30470
C         -0.74070        0.03320       -0.14450
C         -1.43310       -0.06740        1.04530
C         -2.80870       -0.10020        1.06700
C         -3.56110       -0.03420       -0.09900
H         -0.95410        0.17060       -2.24040
H         -0.88690       -0.12270        1.99050
H         -3.36280       -0.17990        2.01030
N         -7.97930        2.57650        2.66160
C         -7.57320        1.76660        1.96000
C         -7.02600        0.77190        1.04940
C         -5.62500        0.75710        0.88400
C         -5.01270       -0.08590       -0.00800
C         -5.81400       -0.92010       -0.73870
C         -7.17030       -0.91440       -0.58520
C         -7.82550       -0.05560        0.32880
H         -5.02200        1.43760        1.48600
H         -5.35440       -1.59290       -1.44140
H         -7.82570       -1.56580       -1.15230
C         -9.27890       -0.10030        0.37840
C        -10.09320        0.12140        1.43960
N        -11.44900       -0.01820        1.37070
C        -12.06750       -0.39120        0.23070
C        -11.24750       -0.61910       -0.84610
N         -9.91710       -0.48090       -0.77840
H         -9.69890        0.37620        2.40040
H        -11.73050       -0.92600       -1.78930
N        -16.97580        0.17150        3.54710
C        -16.37990       -0.07220        2.60200
C        -15.62180       -0.35600        1.40750
C        -14.26820       -0.25660        1.34360
C        -13.51500       -0.52350        0.20580
C        -14.20170       -0.90940       -0.90950
C        -15.60170       -1.02060       -0.87210
C        -16.29650       -0.74570        0.27590
H        -13.72420        0.05020        2.23050
H        -13.67940       -1.13120       -1.82390
H        -16.13610       -1.32480       -1.75290
H         17.31280       -0.90990       -0.32380
H        -17.38200       -0.82400        0.32970
