124

N        -22.04430        0.73910        1.25010
C        -22.03050       -0.36180        0.85020
C        -22.00580       -1.69530        0.33840
C        -23.24790       -2.30790        0.12150
C        -23.32340       -3.59240       -0.38850
C        -22.18500       -4.26840       -0.68080
C        -20.94950       -3.65610       -0.46370
C        -20.85430       -2.37500        0.04340
H        -24.13970       -1.77250        0.35630
H        -22.24720       -5.27130       -1.08060
H        -20.08110       -4.25700       -0.72210
O        -15.50450       -2.58930       -2.00040
S        -16.00680       -1.20090       -1.71340
O        -16.33580       -0.42990       -2.94320
C        -17.37540       -1.26160       -0.59640
C        -18.62860       -1.82910       -0.76360
C        -19.55510       -1.76280        0.26190
C        -19.16390       -1.12300        1.40920
C        -17.90560       -0.56020        1.55990
C        -16.95420       -0.61790        0.53110
C        -15.61790       -0.11020        0.51500
C        -14.89670        0.57800        1.50130
C        -13.59690        0.97800        1.29720
C        -12.91890        0.74010        0.13850
C        -13.65360        0.05130       -0.83950
C        -14.94120       -0.34330       -0.63460
H        -18.85600       -2.32420       -1.71650
H        -19.87050       -1.06980        2.23170
H        -17.65600       -0.06590        2.49610
H        -15.35390        0.81630        2.47370
H        -13.06600        1.51510        2.10110
H        -13.11440       -0.14100       -1.77510
O         -7.75190        0.17680        2.53700
S         -7.95070        1.46230        1.78540
O         -8.01980        2.65770        2.68480
C         -9.29610        1.36960        0.69080
C        -10.62310        1.11270        0.89920
C        -11.53870        1.09950       -0.12300
C        -11.07260        1.36130       -1.38530
C         -9.76410        1.61390       -1.59230
C         -8.81720        1.62630       -0.55850
C         -7.40200        1.79490       -0.63810
C         -6.58110        1.98450       -1.75350
C         -5.20880        2.03890       -1.63590
C         -4.56580        1.91560       -0.44430
C         -5.35240        1.73340        0.67280
C         -6.71310        1.67940        0.54520
H        -11.00920        0.90400        1.91590
H        -11.79070        1.36070       -2.21460
H         -9.45890        1.81900       -2.63240
H         -7.03400        2.09650       -2.74440
H         -4.61410        2.19900       -2.55180
H         -4.88470        1.63390        1.63680
C         -3.11640        1.87860       -0.30990
C         -2.31860        1.74090       -1.42730
N         -0.98120        1.64300       -1.32280
C         -0.36420        1.67610       -0.11590
C         -1.12750        1.81400        1.00020
N         -2.49680        1.91240        0.87340
H         -2.77020        1.70660       -2.40140
H         -0.69760        1.84640        1.99130
N          4.38200        0.41540       -3.43360
C          3.84980        0.71850       -2.44700
C          3.17140        1.06700       -1.22600
C          1.79690        1.22030       -1.22160
C          1.08260        1.51810       -0.05570
C          1.79810        1.65490        1.10210
C          3.19060        1.49880        1.08580
C          3.89140        1.20710       -0.06480
H          1.20530        1.11640       -2.12550
H          1.29920        1.88150        2.03150
H          3.75570        1.61150        2.00780
O          8.27890       -2.20560        1.63600
S          8.53670       -0.75000        1.77750
O          8.45890       -0.26870        3.20750
C          7.41510        0.18160        0.77670
C          6.02030        0.26830        0.81320
C          5.35480        1.08410       -0.06780
C          6.13000        1.78880       -0.95880
C          7.49540        1.70750       -0.99950
C          8.18990        0.87350       -0.10180
C          9.61660        0.65320        0.01490
C         10.66430        1.20590       -0.75180
C         11.94990        0.89010       -0.52610
C         12.32650        0.00130        0.47500
C         11.30610       -0.53520        1.21870
C          9.98630       -0.21810        0.99540
H          5.49520       -0.31450        1.54040
H          5.62510        2.45540       -1.64470
H          8.06210        2.29360       -1.73920
H         10.44110        1.91460       -1.55920
H         12.72540        1.34580       -1.14890
H         11.58140       -1.24240        2.01390
O         17.35150        0.69600       -2.22970
S         17.24710       -0.59620       -1.48950
O         17.02850       -1.76450       -2.40280
C         15.94930       -0.51770       -0.28450
C         14.59170       -0.28500       -0.43920
C         13.73420       -0.28500        0.65830
C         14.32590       -0.52920        1.87510
C         15.67230       -0.75920        2.01990
C         16.54420       -0.75930        0.91680
C         17.97310       -0.95190        0.88420
C         18.86110       -1.17850        1.93450
C         20.20200       -1.30210        1.73080
C         20.77430       -1.21410        0.48550
C         19.88330       -0.98850       -0.57300
C         18.53330       -0.86560       -0.35240
H         14.19100       -0.10270       -1.42690
H         13.65400       -0.53010        2.74200
H         16.06720       -0.94400        3.02450
H         18.51330       -1.26680        2.97020
H         20.87370       -1.48190        2.58550
H         20.30680       -0.91670       -1.56000
C         22.20230       -1.32230        0.24430
C         23.12240       -1.56020        1.22830
N         24.44440       -1.63430        0.92100
C         24.90190       -1.48170       -0.33280
C         23.94860       -1.23860       -1.33080
N         22.64250       -1.16640       -1.02090
H         22.81900       -1.69910        2.27610
H         24.33160       -1.11320       -2.35270
H        -24.32650       -4.02930       -0.54310
H         25.95520       -1.53980       -0.59280
