130

N         19.30920        2.55020       -2.83660
C         19.53530        2.70090       -1.69160
C         19.82570        2.86590       -0.29690
C         21.00200        3.50950        0.03410
C         21.35990        3.72370        1.34260
C         20.50790        3.27570        2.32830
C         19.32720        2.62870        1.98420
C         18.96300        2.41170        0.68150
H         21.65280        3.84730       -0.75950
H         20.80000        3.45410        3.35250
H         18.72160        2.30590        2.82790
C         17.75590        1.70810        0.34120
C         17.87640        0.58500       -0.49600
C         16.78430       -0.14270       -0.83140
C         15.53340        0.19260       -0.36610
C         14.40840       -0.55690       -0.71440
C         13.14880       -0.23230       -0.25610
C         12.98560        0.84370        0.55740
C         11.73790        1.15560        0.99600
C         11.57810        2.27620        1.82640
C         12.68040        3.02720        2.17540
C         13.94700        2.70360        1.72640
C         15.03610        3.45700        2.07310
C         16.31950        3.13260        1.61630
C         16.48780        2.02640        0.79660
C         15.37370        1.29220        0.46110
C         14.11230        1.60430        0.91080
H         18.83900        0.27780       -0.87960
H         16.81650       -1.02700       -1.48850
H         14.51240       -1.42200       -1.36230
H         12.34360       -0.84550       -0.57150
H         10.57680        2.51480        2.16840
H         12.56340        3.89090        2.81530
H         14.88410        4.30120        2.70370
H         17.12800        3.75580        1.89450
O          6.83490        1.21210       -2.12060
S          6.70670        0.95290       -0.64430
O          6.19110        2.12070        0.09880
C          8.23650        0.36490        0.01520
C          9.41320        1.04680        0.19970
C         10.50310        0.40000        0.71530
C         10.36110       -0.93490        1.02750
C          9.17580       -1.59760        0.83500
C          8.04670       -0.94670        0.31040
C          6.69560       -1.44390        0.10440
C          6.15040       -2.70870        0.38030
C          4.81900       -2.96630        0.19400
C          3.94080       -2.01940       -0.26750
C          4.46060       -0.78730       -0.54360
C          5.81390       -0.52080       -0.35590
H          9.47900        2.10400       -0.06010
H         11.21800       -1.48770        1.44290
H          9.12520       -2.63930        1.09930
H          6.79040       -3.48540        0.74400
H          4.39560       -3.95830        0.41030
H          3.82730       -0.00620       -0.91330
C          2.51680       -2.33250       -0.35380
C          1.57950       -1.38380       -0.70460
N          0.26270       -1.64460       -0.68840
C         -0.23860       -2.85150       -0.32910
C          0.69220       -3.80260        0.01600
N          2.03090       -3.54110        0.00090
H          1.94770       -0.39110       -1.00160
H          0.30510       -4.77960        0.30160
N         -4.90410       -6.41220        0.89230
C         -4.36820       -5.42460        0.60040
C         -3.72780       -4.20270        0.22430
C         -2.32990       -4.17880        0.11120
C         -1.68790       -3.04190       -0.25030
C         -2.47560       -1.90870       -0.50730
C         -3.82880       -1.92610       -0.39950
C         -4.47670       -3.09220       -0.02440
H         -1.75220       -5.06440        0.31300
H         -1.97630       -0.99220       -0.79890
H         -4.38190       -1.03780       -0.60610
C         -5.93530       -2.98020        0.20050
C         -6.40550       -3.14900        1.50920
C         -7.72380       -2.90840        1.79940
C         -8.63280       -2.49960        0.84410
C         -9.95220       -2.24090        1.15230
C        -10.87120       -1.81270        0.20800
C        -10.41440       -1.65180       -1.08030
C        -11.31950       -1.24020       -2.04700
C        -10.82490       -1.11060       -3.33580
C         -9.51440       -1.36380       -3.67730
C         -8.63240       -1.77040       -2.68880
C         -7.31330       -2.01910       -3.00710
C         -6.38130       -2.42610       -2.04730
C         -6.82980       -2.57880       -0.75510
C         -8.17310       -2.33580       -0.44840
C         -9.08820       -1.91200       -1.39230
H         -5.68060       -3.47580        2.26180
H         -8.09040       -3.03650        2.81560
H        -10.28590       -2.37910        2.17640
H        -11.92380       -1.60700        0.46000
H        -11.50150       -0.79360       -4.12320
H         -9.11870       -1.26280       -4.67870
H         -6.95700       -1.90330       -4.01790
H         -5.36340       -2.61910       -2.31790
O        -13.90900        2.69640        1.18820
S        -14.54880        2.42200       -0.11870
O        -14.29000        3.48790       -1.14810
C        -14.06550        0.85750       -0.79760
C        -12.82900        0.42020       -1.15910
C        -12.68180       -0.86360       -1.70800
C        -13.80600       -1.60940       -1.84510
C        -15.05730       -1.14880       -1.46850
C        -15.22580        0.14030       -0.91680
C        -16.41780        0.79640       -0.47780
C        -17.74080        0.31900       -0.46700
C        -18.76570        1.09790        0.00370
C        -18.60350        2.36870        0.49140
C        -17.26450        2.81640        0.46530
C        -16.24630        2.04240       -0.00200
H        -11.97330        1.06840       -1.01970
H        -13.67730       -2.61520       -2.26890
H        -15.88650       -1.80000       -1.61250
H        -17.99300       -0.67790       -0.82690
H        -19.78510        0.68260       -0.01010
H        -17.12540        3.82240        0.85090
C        -19.65290        3.21970        1.01330
C        -20.95760        2.82960        1.15350
N        -21.92190        3.63800        1.66000
C        -21.55200        4.88070        2.03620
C        -20.25330        5.31200        1.91270
N        -19.34050        4.46770        1.40440
H        -21.24950        1.83800        0.85340
H        -20.01600        6.32830        2.23610
H         22.29470        4.23590        1.58430
H        -22.33080        5.52030        2.43880
