72

C        -16.03510        0.02170        0.04240
C        -15.25830       -0.35380       -1.02450
N        -13.89820       -0.30930       -0.93590
C        -13.30000        0.10550        0.20360
C        -14.09590        0.47440        1.25250
N        -15.44300        0.43340        1.17230
H        -15.75040       -0.68150       -1.92310
H        -13.68490        0.81070        2.17570
N         -8.60590       -1.03360       -3.06980
C         -9.08590       -0.68650       -2.07910
C         -9.70960       -0.25750       -0.86650
C        -11.08900       -0.25850       -0.84760
C        -11.83250        0.13330        0.25180
C        -11.14360        0.53470        1.35410
C         -9.74290        0.54590        1.36250
C         -9.03190        0.15150        0.25760
H        -11.66300       -0.57550       -1.72410
H        -11.67520        0.85140        2.23860
H         -9.30560        0.88380        2.29550
C         -7.57970        0.17550        0.27930
C         -6.86730        0.65790        1.35730
N         -5.49840        0.68100        1.36690
C         -4.81460        0.22940        0.31670
C         -5.53250       -0.25360       -0.76340
N         -6.87110       -0.27860       -0.77950
H         -7.39150        1.03400        2.22740
H         -4.97370       -0.61880       -1.61720
C         -3.35780        0.21680        0.25340
C         -2.57470        0.67360        1.29030
N         -1.21760        0.65560        1.23260
C         -0.58320        0.18560        0.14820
C         -1.36130       -0.27620       -0.90170
N         -2.71790       -0.25150       -0.82850
H         -3.07310        1.05550        2.17270
H         -0.89160       -0.66450       -1.79610
C          0.86540        0.13470        0.03590
C          1.67430        0.57840        1.08150
N          3.01060        0.51690        0.96830
C          3.60190        0.02790       -0.15120
C          2.79020       -0.40060       -1.16290
N          1.42940       -0.35090       -1.07790
H          1.14820        0.95440        1.94190
H          3.20070       -0.79710       -2.07480
N          8.22720       -1.71870       -3.36190
C          7.75910       -1.18320       -2.44460
C          7.14760       -0.55330       -1.29400
C          5.74210       -0.52370       -1.29490
C          5.05570       -0.02800       -0.22240
C          5.81180        0.43640        0.84800
C          7.17350        0.41270        0.85590
C          7.89190       -0.09690       -0.24960
H          5.20120       -0.89070       -2.14270
H          5.25890        0.83340        1.70730
H          7.74750        0.78510        1.71090
C          9.33380       -0.13430       -0.13770
C         10.26690       -0.01480       -1.12090
N         11.61600       -0.01180       -0.85770
C         12.08620       -0.12480        0.38240
C         11.15740       -0.24370        1.39120
N          9.85000       -0.24750        1.13380
H          9.95020        0.12650       -2.14400
H         11.54200       -0.33460        2.40030
C         13.52300       -0.12320        0.63890
C         14.45130       -0.00970       -0.36880
N         15.78700       -0.01540       -0.07630
C         16.22430       -0.13080        1.18980
C         15.27750       -0.24440        2.18890
N         13.96070       -0.23860        1.89940
H         14.11740        0.08340       -1.38590
H         15.63610       -0.33970        3.22370
H        -17.13390       -0.00790       -0.01230
H         17.27390       -0.13740        1.45340
