136

C        -20.12560        4.20470        0.15450
C        -19.20880        5.21260        0.39180
C        -17.85580        4.95800        0.33770
C        -17.38030        3.69370        0.04610
C        -16.02340        3.46220       -0.00290
C        -15.51290        2.19830       -0.29400
C        -16.45040        1.19660       -0.52900
C        -15.93420       -0.06650       -0.80530
C        -16.84140       -1.07800       -1.02390
C        -18.18630       -0.83400       -0.97100
C        -18.72820        0.42370       -0.69860
C        -20.09230        0.64260       -0.64920
C        -20.56050        1.91980       -0.36560
C        -19.66840        2.94300       -0.13610
C        -18.30920        2.70290       -0.18690
C        -17.80480        1.43060       -0.47890
H        -19.56140        6.21500        0.62090
H        -17.13630        5.74240        0.52190
H        -15.32310        4.27480        0.18600
H        -14.46310        2.00050       -0.32930
H        -16.45010       -2.06810       -1.23740
H        -18.91590       -1.64030       -1.14610
H        -20.77090       -0.16470       -0.82990
H        -21.64490        2.07720       -0.33450
N        -11.49670        0.98600       -4.37990
C        -11.92460        0.51750       -3.39530
C        -12.47710       -0.02110       -2.17980
C        -13.87040        0.11880       -2.05040
C        -14.49620       -0.28030       -0.91490
C        -13.76320       -0.82060        0.09950
C        -12.39800       -0.95460       -0.03710
C        -11.71250       -0.55280       -1.19480
H        -14.45420        0.54270       -2.84910
H        -14.28080       -1.13160        0.98760
H        -11.85610       -1.38410        0.79030
C        -10.27700       -0.63150       -1.20490
C         -9.41840       -0.79390       -2.24510
N         -8.07290       -0.84030       -2.12540
C         -7.45250       -0.72880       -0.90940
C         -8.31560       -0.57230        0.14850
N         -9.64620       -0.52500        0.02460
H         -9.85350       -0.95220       -3.24180
H         -7.85380       -0.44900        1.15200
C         -6.00980       -0.58600       -0.85300
C         -5.40430        0.30490       -1.77230
C         -4.06220        0.54630       -1.79200
C         -3.23750       -0.09590       -0.88550
C         -1.87610        0.15030       -0.87990
C         -1.10810       -0.50380        0.04610
C         -1.63570       -1.38700        0.95620
C         -0.73900       -2.01890        1.82660
C         -1.28500       -2.92690        2.69480
C         -2.66210       -3.18130        2.68990
C         -3.54020       -2.54590        1.82670
C         -4.88770       -2.81000        1.84030
C         -5.69630       -2.12650        0.92950
C         -5.19420       -1.21390        0.02500
C         -3.80530       -0.97490        0.01850
C         -2.98770       -1.62400        0.94040
H         -6.07000        0.78430       -2.46440
H         -3.59260        1.22520       -2.49470
H         -1.48530        0.84580       -1.60790
H         -0.03670       -0.32160        0.05540
H         -0.65700       -3.45460        3.39450
H         -3.01650       -3.90390        3.39990
H         -5.29510       -3.52620        2.54370
H         -6.72830       -2.36730        0.92850
C          0.64410       -1.57850        1.87760
C          0.98340       -0.47460        2.66050
C          2.28100       -0.05470        2.72180
C          3.28210       -0.69580        2.02240
C          4.58850       -0.22970        2.08520
C          5.62270       -0.82830        1.37950
C          5.30540       -1.92040        0.60210
C          6.33480       -2.50380       -0.12120
C          6.02430       -3.57600       -0.91770
C          4.70670       -4.04950       -0.98400
C          3.67800       -3.47420       -0.26590
C          2.36540       -3.92010       -0.33910
C          1.34560       -3.31410        0.36820
C          1.63070       -2.21390        1.18860
C          2.96400       -1.79460        1.24040
C          3.98450       -2.39530        0.53680
H          0.17260        0.01170        3.19650
H          2.57540        0.80400        3.32580
H          4.78550        0.62650        2.71130
H          6.62300       -0.41890        1.44480
H          6.80350       -4.04600       -1.49850
H          4.45680       -4.89500       -1.61440
H          2.17380       -4.77220       -0.98310
H          0.35340       -3.68020        0.28670
N         10.75520       -2.27580        3.70170
C         10.26890       -1.99400        2.69820
C          9.65030       -1.68360        1.42820
C          8.36460       -2.18210        1.19180
C          7.71590       -2.01520       -0.01370
C          8.36200       -1.34220       -1.00280
C          9.60640       -0.85580       -0.77800
C         10.30790       -0.99830        0.44410
H          7.89470       -2.71140        2.00570
H          7.85770       -1.21780       -1.95110
H         10.13070       -0.32200       -1.54980
C         11.63370       -0.40830        0.53900
C         12.25160        0.08220        1.63980
N         13.45820        0.68380        1.58530
C         14.14970        0.84790        0.40900
C         13.52340        0.35880       -0.69020
N         12.32640       -0.24180       -0.63560
H         11.78570        0.06120        2.60390
H         13.96240        0.48110       -1.68860
C         15.38840        1.60730        0.47870
C         15.41730        2.72140        1.35960
C         16.51280        3.49520        1.53210
C         17.65440        3.20810        0.83800
C         18.76770        4.01920        1.03390
C         19.92930        3.76360        0.36410
C         19.96150        2.68590       -0.50520
C         21.14900        2.42960       -1.16290
C         21.22010        1.36330       -2.01380
C         20.12430        0.53380       -2.23040
C         18.93700        0.81950       -1.55020
C         17.82930        0.02660       -1.71930
C         16.62620        0.27640       -1.04870
C         16.54660        1.34350       -0.19820
C         17.69060        2.14390       -0.02350
C         18.86770        1.89140       -0.69600
H         14.49400        2.90670        1.88270
H         16.47460        4.33580        2.21830
H         18.68330        4.85120        1.72530
H         20.78580        4.37610        0.50940
H         22.12760        1.11460       -2.55980
H         20.16940       -0.30910       -2.90210
H         17.89010       -0.81100       -2.38880
H         15.81350       -0.41520       -1.19130
H        -21.17580        4.40310        0.19340
H         22.00480        3.08360       -0.98550
