
     RDKit          3D

118133  0  0  0  0  0  0  0  0999 V2000
  -21.0866   -1.5012    1.0404 O   0  0  0  0  0  0  0  0  0  0  0  0
  -20.7588   -0.1572    1.5628 S   0  0  0  0  0  0  0  0  0  0  0  0
  -20.6704   -0.1326    3.0776 O   0  0  0  0  0  0  0  0  0  0  0  0
  -21.8328    1.0994    1.0040 C   0  0  0  0  0  0  0  0  0  0  0  0
  -23.2040    1.2648    1.1370 C   0  0  0  0  0  0  0  0  0  0  0  0
  -23.8311    2.3649    0.6079 C   0  0  0  0  0  0  0  0  0  0  0  0
  -23.0639    3.2827   -0.0489 C   0  0  0  0  0  0  0  0  0  0  0  0
  -21.7289    3.1150   -0.1744 C   0  0  0  0  0  0  0  0  0  0  0  0
  -21.0355    2.0059    0.3497 C   0  0  0  0  0  0  0  0  0  0  0  0
  -19.6441    1.6851    0.2935 C   0  0  0  0  0  0  0  0  0  0  0  0
  -18.5981    2.4275   -0.2963 C   0  0  0  0  0  0  0  0  0  0  0  0
  -17.3081    1.9608   -0.2430 C   0  0  0  0  0  0  0  0  0  0  0  0
  -16.9636    0.7666    0.3733 C   0  0  0  0  0  0  0  0  0  0  0  0
  -17.9615    0.0475    0.9402 C   0  0  0  0  0  0  0  0  0  0  0  0
  -19.2762    0.5097    0.8958 C   0  0  0  0  0  0  0  0  0  0  0  0
  -23.7602    0.5091    1.6666 H   0  0  0  0  0  0  0  0  0  0  0  0
  -23.5421    4.1499   -0.4700 H   0  0  0  0  0  0  0  0  0  0  0  0
  -21.1819    3.8849   -0.7146 H   0  0  0  0  0  0  0  0  0  0  0  0
  -18.8031    3.3772   -0.8045 H   0  0  0  0  0  0  0  0  0  0  0  0
  -16.5377    2.5788   -0.7143 H   0  0  0  0  0  0  0  0  0  0  0  0
  -17.7732   -0.8797    1.4299 H   0  0  0  0  0  0  0  0  0  0  0  0
  -15.5413    0.4042    0.4172 C   0  0  0  0  0  0  0  0  0  0  0  0
  -15.1335   -0.8570    0.7806 C   0  0  0  0  0  0  0  0  0  0  0  0
  -13.8071   -1.1985    0.7899 N   0  0  0  0  0  0  0  0  0  0  0  0
  -12.8581   -0.2997    0.4407 C   0  0  0  0  0  0  0  0  0  0  0  0
  -13.2849    0.9609    0.0773 C   0  0  0  0  0  0  0  0  0  0  0  0
  -14.5873    1.2816    0.0726 N   0  0  0  0  0  0  0  0  0  0  0  0
  -15.8816   -1.5998    1.0678 H   0  0  0  0  0  0  0  0  0  0  0  0
  -12.5465    1.7004   -0.2084 H   0  0  0  0  0  0  0  0  0  0  0  0
   -7.6334    1.6915   -1.1180 O   0  0  0  0  0  0  0  0  0  0  0  0
   -7.6556    0.7840    0.0485 S   0  0  0  0  0  0  0  0  0  0  0  0
   -7.3668    1.4825    1.3541 O   0  0  0  0  0  0  0  0  0  0  0  0
   -9.1069   -0.1765    0.1627 C   0  0  0  0  0  0  0  0  0  0  0  0
  -10.4197    0.2128    0.2861 C   0  0  0  0  0  0  0  0  0  0  0  0
  -11.4458   -0.6805    0.3922 C   0  0  0  0  0  0  0  0  0  0  0  0
  -11.1059   -2.0189    0.3712 C   0  0  0  0  0  0  0  0  0  0  0  0
   -9.7941   -2.3976    0.2452 C   0  0  0  0  0  0  0  0  0  0  0  0
   -8.7495   -1.4711    0.1356 C   0  0  0  0  0  0  0  0  0  0  0  0
   -7.3297   -1.7029   -0.0260 C   0  0  0  0  0  0  0  0  0  0  0  0
   -6.6402   -2.9160   -0.1332 C   0  0  0  0  0  0  0  0  0  0  0  0
   -5.2772   -2.9449   -0.3221 C   0  0  0  0  0  0  0  0  0  0  0  0
   -4.5169   -1.7958   -0.4155 C   0  0  0  0  0  0  0  0  0  0  0  0
   -5.1882   -0.5953   -0.3101 C   0  0  0  0  0  0  0  0  0  0  0  0
   -6.5673   -0.5904   -0.1207 C   0  0  0  0  0  0  0  0  0  0  0  0
  -10.6896    1.2870    0.3132 H   0  0  0  0  0  0  0  0  0  0  0  0
  -11.8995   -2.7841    0.4643 H   0  0  0  0  0  0  0  0  0  0  0  0
   -9.5827   -3.4828    0.2339 H   0  0  0  0  0  0  0  0  0  0  0  0
   -7.1617   -3.8749   -0.0678 H   0  0  0  0  0  0  0  0  0  0  0  0
   -4.7565   -3.9090   -0.4048 H   0  0  0  0  0  0  0  0  0  0  0  0
   -4.6516    0.3281   -0.3702 H   0  0  0  0  0  0  0  0  0  0  0  0
   -3.0714   -1.8402   -0.6365 C   0  0  0  0  0  0  0  0  0  0  0  0
   -2.2753   -0.7449   -0.5336 C   0  0  0  0  0  0  0  0  0  0  0  0
   -0.9116   -0.8093   -0.7028 N   0  0  0  0  0  0  0  0  0  0  0  0
   -0.3432   -2.0206   -0.9839 C   0  0  0  0  0  0  0  0  0  0  0  0
   -1.1622   -3.1004   -1.0830 C   0  0  0  0  0  0  0  0  0  0  0  0
   -2.5163   -3.0286   -0.9133 N   0  0  0  0  0  0  0  0  0  0  0  0
   -2.6849    0.2386   -0.3075 H   0  0  0  0  0  0  0  0  0  0  0  0
   -0.7583   -4.0806   -1.3146 H   0  0  0  0  0  0  0  0  0  0  0  0
    4.4129    0.6605    0.8813 O   0  0  0  0  0  0  0  0  0  0  0  0
    4.4711    0.2038   -0.5272 S   0  0  0  0  0  0  0  0  0  0  0  0
    4.4030    1.3523   -1.4961 O   0  0  0  0  0  0  0  0  0  0  0  0
    3.2716   -1.0212   -0.8810 C   0  0  0  0  0  0  0  0  0  0  0  0
    1.8753   -1.0020   -0.7801 C   0  0  0  0  0  0  0  0  0  0  0  0
    1.1190   -2.1032   -1.1082 C   0  0  0  0  0  0  0  0  0  0  0  0
    1.8008   -3.2048   -1.5351 C   0  0  0  0  0  0  0  0  0  0  0  0
    3.1774   -3.2437   -1.6419 C   0  0  0  0  0  0  0  0  0  0  0  0
    3.9580   -2.1198   -1.3057 C   0  0  0  0  0  0  0  0  0  0  0  0
    5.4041   -1.9878   -1.2961 C   0  0  0  0  0  0  0  0  0  0  0  0
    6.3927   -2.9351   -1.6478 C   0  0  0  0  0  0  0  0  0  0  0  0
    7.7184   -2.6289   -1.5408 C   0  0  0  0  0  0  0  0  0  0  0  0
    8.1894   -1.4117   -1.0953 C   0  0  0  0  0  0  0  0  0  0  0  0
    7.2451   -0.4912   -0.7561 C   0  0  0  0  0  0  0  0  0  0  0  0
    5.8756   -0.7951   -0.8628 C   0  0  0  0  0  0  0  0  0  0  0  0
    1.4058   -0.0856   -0.4334 H   0  0  0  0  0  0  0  0  0  0  0  0
    1.2049   -4.0882   -1.8036 H   0  0  0  0  0  0  0  0  0  0  0  0
    3.6830   -4.1432   -1.9875 H   0  0  0  0  0  0  0  0  0  0  0  0
    6.0660   -3.9133   -1.9989 H   0  0  0  0  0  0  0  0  0  0  0  0
    8.4575   -3.3797   -1.8216 H   0  0  0  0  0  0  0  0  0  0  0  0
    7.4934    0.4962   -0.4031 H   0  0  0  0  0  0  0  0  0  0  0  0
    9.6109   -1.1204   -1.0083 C   0  0  0  0  0  0  0  0  0  0  0  0
   10.1028   -0.0134   -0.3433 C   0  0  0  0  0  0  0  0  0  0  0  0
   11.4366    0.2297   -0.2216 N   0  0  0  0  0  0  0  0  0  0  0  0
   12.3290   -0.6155   -0.7562 C   0  0  0  0  0  0  0  0  0  0  0  0
   11.8529   -1.7134   -1.4177 C   0  0  0  0  0  0  0  0  0  0  0  0
   10.5289   -1.9539   -1.5363 N   0  0  0  0  0  0  0  0  0  0  0  0
    9.3825    0.6748    0.0954 H   0  0  0  0  0  0  0  0  0  0  0  0
   12.5826   -2.4063   -1.8561 H   0  0  0  0  0  0  0  0  0  0  0  0
   15.9357    1.8511    2.9593 O   0  0  0  0  0  0  0  0  0  0  0  0
   16.1639    2.2186    1.5150 S   0  0  0  0  0  0  0  0  0  0  0  0
   15.7387    3.6000    1.1870 O   0  0  0  0  0  0  0  0  0  0  0  0
   15.4420    1.0008    0.4649 C   0  0  0  0  0  0  0  0  0  0  0  0
   14.1130    0.6831    0.2961 C   0  0  0  0  0  0  0  0  0  0  0  0
   13.7611   -0.3258   -0.5675 C   0  0  0  0  0  0  0  0  0  0  0  0
   14.7470   -0.9796   -1.2284 C   0  0  0  0  0  0  0  0  0  0  0  0
   16.0732   -0.6485   -1.0474 C   0  0  0  0  0  0  0  0  0  0  0  0
   16.4573    0.3839   -0.1663 C   0  0  0  0  0  0  0  0  0  0  0  0
   17.7782    0.8701    0.1528 C   0  0  0  0  0  0  0  0  0  0  0  0
   19.0077    0.4535   -0.3475 C   0  0  0  0  0  0  0  0  0  0  0  0
   20.1890    1.0317    0.0451 C   0  0  0  0  0  0  0  0  0  0  0  0
   20.2221    2.0746    0.9692 C   0  0  0  0  0  0  0  0  0  0  0  0
   18.9980    2.4793    1.4559 C   0  0  0  0  0  0  0  0  0  0  0  0
   17.8174    1.8768    1.0439 C   0  0  0  0  0  0  0  0  0  0  0  0
   13.3384    1.2325    0.8492 H   0  0  0  0  0  0  0  0  0  0  0  0
   14.4934   -1.7900   -1.9269 H   0  0  0  0  0  0  0  0  0  0  0  0
   16.8149   -1.2143   -1.6087 H   0  0  0  0  0  0  0  0  0  0  0  0
   19.0757   -0.3654   -1.0855 H   0  0  0  0  0  0  0  0  0  0  0  0
   21.1459    0.6936   -0.3542 H   0  0  0  0  0  0  0  0  0  0  0  0
   18.9729    3.2959    2.1848 H   0  0  0  0  0  0  0  0  0  0  0  0
   21.4824    2.6778    1.3732 C   0  0  0  0  0  0  0  0  0  0  0  0
   21.6095    3.6722    2.3033 C   0  0  0  0  0  0  0  0  0  0  0  0
   22.7920    4.2192    2.6715 N   0  0  0  0  0  0  0  0  0  0  0  0
   23.9263    3.7677    2.0962 C   0  0  0  0  0  0  0  0  0  0  0  0
   23.8231    2.7673    1.1575 C   0  0  0  0  0  0  0  0  0  0  0  0
   22.6379    2.2310    0.7987 N   0  0  0  0  0  0  0  0  0  0  0  0
   20.7314    4.0671    2.7981 H   0  0  0  0  0  0  0  0  0  0  0  0
   24.7520    2.4215    0.7087 H   0  0  0  0  0  0  0  0  0  0  0  0
  -24.9067    2.5005    0.7077 H   0  0  0  0  0  0  0  0  0  0  0  0
   24.8794    4.2033    2.3872 H   0  0  0  0  0  0  0  0  0  0  0  0
  1  2  2  0
  2  3  2  0
  2  4  1  0
  4  5  2  0
  5  6  1  0
  6  7  2  0
  7  8  1  0
  8  9  2  0
  9 10  1  0
 10 11  2  0
 11 12  1  0
 12 13  2  0
 13 14  1  0
 14 15  2  0
 15  2  1  0
  9  4  1  0
 15 10  1  0
  5 16  1  0
  7 17  1  0
  8 18  1  0
 11 19  1  0
 12 20  1  0
 14 21  1  0
 22 23  2  0
 23 24  1  0
 24 25  2  0
 25 26  1  0
 26 27  2  0
 27 22  1  0
 23 28  1  0
 26 29  1  0
 30 31  2  0
 31 32  2  0
 31 33  1  0
 33 34  2  0
 34 35  1  0
 35 36  2  0
 36 37  1  0
 37 38  2  0
 38 39  1  0
 39 40  2  0
 40 41  1  0
 41 42  2  0
 42 43  1  0
 43 44  2  0
 44 31  1  0
 38 33  1  0
 44 39  1  0
 34 45  1  0
 36 46  1  0
 37 47  1  0
 40 48  1  0
 41 49  1  0
 43 50  1  0
 51 52  2  0
 52 53  1  0
 53 54  2  0
 54 55  1  0
 55 56  2  0
 56 51  1  0
 52 57  1  0
 55 58  1  0
 59 60  2  0
 60 61  2  0
 60 62  1  0
 62 63  2  0
 63 64  1  0
 64 65  2  0
 65 66  1  0
 66 67  2  0
 67 68  1  0
 68 69  2  0
 69 70  1  0
 70 71  2  0
 71 72  1  0
 72 73  2  0
 73 60  1  0
 67 62  1  0
 73 68  1  0
 63 74  1  0
 65 75  1  0
 66 76  1  0
 69 77  1  0
 70 78  1  0
 72 79  1  0
 80 81  2  0
 81 82  1  0
 82 83  2  0
 83 84  1  0
 84 85  2  0
 85 80  1  0
 81 86  1  0
 84 87  1  0
 88 89  2  0
 89 90  2  0
 89 91  1  0
 91 92  2  0
 92 93  1  0
 93 94  2  0
 94 95  1  0
 95 96  2  0
 96 97  1  0
 97 98  2  0
 98 99  1  0
 99100  2  0
100101  1  0
101102  2  0
102 89  1  0
 96 91  1  0
102 97  1  0
 92103  1  0
 94104  1  0
 95105  1  0
 98106  1  0
 99107  1  0
101108  1  0
109110  2  0
110111  1  0
111112  2  0
112113  1  0
113114  2  0
114109  1  0
110115  1  0
113116  1  0
 13 22  1  0
 25 35  1  0
 42 51  1  0
 54 64  1  0
 71 80  1  0
 83 93  1  0
100109  1  0
  6117  1  0
112118  1  0
M  END
