130

O        -19.74990       -1.12720        2.09950
S        -19.62410       -1.70280        0.71830
O        -19.77070       -3.19090        0.70540
C        -20.69620       -0.93050       -0.41140
C        -22.06380       -0.90830       -0.46130
C        -22.69650       -0.21640       -1.46310
C        -21.95130        0.44310       -2.40120
C        -20.58550        0.40880       -2.33430
C        -19.89310       -0.29080       -1.32030
C        -18.49080       -0.42850       -1.11280
C        -17.42300        0.09950       -1.87150
C        -16.12810       -0.14340       -1.52320
C        -15.78900       -0.90430       -0.43140
C        -16.79940       -1.42410        0.31590
C        -18.11160       -1.18310       -0.02930
H        -22.63520       -1.45030        0.31100
H        -22.44400        0.98220       -3.18260
H        -20.00640        0.94380       -3.09740
H        -17.60710        0.71530       -2.75620
H        -15.31100        0.26410       -2.10600
H        -16.60340       -2.02610        1.17770
C        -14.36840       -1.14690       -0.10240
C        -13.90140       -2.46690       -0.08000
C        -12.57520       -2.75670        0.15370
C        -11.65630       -1.72590        0.37610
C        -10.33340       -2.02870        0.59910
C         -9.40340       -1.01110        0.81600
C         -9.81830        0.29820        0.80500
C         -8.90800        1.29800        1.02750
C         -9.33140        2.63770        1.03380
C        -10.66100        2.90080        0.81050
C        -11.56870        1.86890        0.58350
C        -12.89200        2.17200        0.36040
C        -13.83900        1.16580        0.12680
C        -13.45080       -0.15410        0.12070
C        -12.10750       -0.42370        0.35780
C        -11.16130        0.55300        0.57670
H        -14.62760       -3.24680       -0.25470
H        -12.25840       -3.79020        0.16170
H         -9.98590       -3.05310        0.61400
H         -8.37260       -1.22500        1.00250
H         -8.60850        3.43340        1.21300
H        -10.99620        3.92150        0.81230
H        -13.21870        3.20350        0.36280
H        -14.86420        1.40610       -0.03110
N         -4.40940        2.66930        4.53490
C         -4.85000        2.13650        3.60510
C         -5.42780        1.50830        2.43090
C         -6.79240        1.59480        2.28670
C         -7.47060        1.11870        1.20010
C         -6.68020        0.52060        0.21650
C         -5.32860        0.42130        0.33550
C         -4.66650        0.92550        1.47120
H         -7.40130        2.06380        3.06910
H         -7.19080        0.12460       -0.66820
H         -4.69700       -0.04770       -0.43050
C         -3.19540        0.86690        1.47540
C         -2.40090        0.68280        2.55410
N         -1.03820        0.61150        2.42160
C         -0.41750        0.71570        1.23580
C         -1.22730        0.89910        0.13970
N         -2.56050        0.97120        0.25780
H         -2.82580        0.54110        3.54460
H         -0.75990        0.98770       -0.85130
O          4.17450       -0.18640       -2.33680
S          4.25280        0.90900       -1.34570
O          4.15100        2.26910       -1.99230
C          3.13740        0.76920       -0.02830
C          1.76440        0.79120       -0.00010
C          1.04430        0.66520        1.15850
C          1.77340        0.51090        2.31880
C          3.12970        0.48930        2.29130
C          3.86150        0.61970        1.10950
C          5.28550        0.65130        0.92350
C          6.31460        0.55660        1.88060
C          7.63660        0.64030        1.51450
C          8.06010        0.81730        0.22220
C          7.05680        0.90970       -0.73030
C          5.72180        0.82550       -0.35600
H          1.19160        0.91270       -0.93490
H          1.20620        0.40860        3.24050
H          3.64020        0.36060        3.26220
H          6.06540        0.41290        2.92870
H          8.39060        0.56190        2.29570
H          7.29180        1.04620       -1.75990
C          9.44500        0.94070       -0.20980
C          9.81380        2.10620       -0.89560
C         11.10920        2.30420       -1.28870
C         12.09160        1.35310       -1.01840
C         13.39150        1.55600       -1.41690
C         14.37890        0.60900       -1.15140
C         14.07280       -0.54570       -0.48540
C         15.06800       -1.47420       -0.24620
C         14.66600       -2.64610        0.42770
C         13.36920       -2.84870        0.82180
C         12.38710       -1.89370        0.56890
C         11.08550       -2.09840        0.95990
C         10.10580       -1.15590        0.70510
C         10.41570        0.01600        0.04780
C         11.74920        0.20120       -0.34740
C         12.74250       -0.73540       -0.08840
H          9.01780        2.81750       -1.08400
H         11.40040        3.18410       -1.80850
H         13.62360        2.45960       -1.93440
H         15.38720        0.77620       -1.48540
H         15.42910       -3.37070        0.61530
H         13.04760       -3.74130        1.33970
H         10.82040       -3.00740        1.47380
H          9.08230       -1.32700        1.00150
N         19.57240        2.13880        0.47230
C         19.11690        1.14140        0.08760
C         18.52420       -0.06940       -0.41790
C         17.18480       -0.24770       -0.10760
C         16.46430       -1.30410       -0.58590
C         17.12540       -2.19690       -1.39800
C         18.45310       -2.02820       -1.70870
C         19.19590       -0.94480       -1.21730
H         16.68900        0.49110        0.54780
H         16.62580       -3.07080       -1.82530
H         18.97990       -2.72380       -2.34570
C         20.58890       -0.81230       -1.63590
C         21.57350       -0.29730       -0.85230
N         22.89150       -0.25850       -1.26180
C         23.19520       -0.74830       -2.46640
C         22.21220       -1.27750       -3.27520
N         20.95150       -1.30370       -2.86420
H         21.44690        0.07420        0.14280
H         22.52170       -1.66810       -4.25990
H        -23.77540       -0.20380       -1.49660
H         24.24080       -0.72040       -2.79500
