162

O         22.70710       -1.77890       -1.24570
S         22.28470       -2.26060        0.10080
O         21.82640       -3.68960        0.08250
C         23.59370       -2.08840        1.28440
C         24.85860       -2.67020        1.31520
C         25.68630       -2.35580        2.36470
C         25.25190       -1.49140        3.33840
C         24.01750       -0.94470        3.27600
C         23.11510       -1.22280        2.22690
C         21.78540       -0.74160        2.01100
C         21.00930        0.13340        2.79030
C         19.74850        0.48390        2.45500
C         19.12390        0.01120        1.32110
C         19.87760       -0.84870        0.54850
C         21.16010       -1.20400        0.89160
H         25.14750       -3.34460        0.52630
H         25.90590       -1.25840        4.15430
H         23.69250       -0.25480        4.07050
H         21.42700        0.55120        3.70530
H         19.17770        1.16620        3.10060
H         19.42570       -1.24110       -0.34780
C         17.77420        0.45780        1.04110
C         17.46070        1.79500        0.90600
C         16.17210        2.18740        0.61340
C         15.15550        1.26440        0.44850
C         13.88400        1.69650        0.16400
C         12.81080        0.81630       -0.00830
C         13.09910       -0.53060        0.12500
C         12.07460       -1.41660       -0.03550
C         12.38090       -2.78330        0.09890
C         13.65360       -3.20590        0.38210
C         14.68850       -2.29320        0.54560
C         15.96430       -2.72280        0.83730
C         17.02180       -1.81780        1.00990
C         16.74400       -0.47590        0.87430
C         15.45200       -0.07440        0.58160
C         14.40240       -0.95430        0.41390
H         18.23370        2.54420        1.02990
H         15.96480        3.25880        0.51530
H         13.68850        2.74110        0.06640
H         11.83160        1.17730       -0.24380
H         11.55480       -3.48680       -0.03230
H         13.90930       -4.24790        0.48880
H         16.18920       -3.77240        0.94070
H         17.95990       -2.23100        1.25140
N          7.52080       -2.57740       -3.68360
C          8.02740       -2.09150       -2.75680
C          8.66160       -1.47020       -1.59370
C          9.99960       -1.65710       -1.35480
C         10.67470       -1.07320       -0.27110
C          9.90820       -0.28650        0.55190
C          8.56440       -0.06510        0.36070
C          7.93240       -0.67240       -0.73180
H         10.57800       -2.28000       -2.02520
H         10.44100        0.17430        1.40480
H          7.98590        0.55530        1.02300
C          6.50920       -0.61720       -0.96090
C          5.81600       -1.85870       -0.97190
C          4.46230       -1.81250       -1.12360
C          3.73440       -0.65420       -1.26220
C          2.36020       -0.67700       -1.40510
C          1.59340        0.45660       -1.54210
C          2.26640        1.67280       -1.53150
C          1.51400        2.82800       -1.65640
C          2.18180        4.02370       -1.63360
C          3.56810        4.06200       -1.49010
C          4.31860        2.91800       -1.36620
C          5.69090        2.95570       -1.22080
C          6.42030        1.78200       -1.08940
C          5.79880        0.54210       -1.09870
C          4.41840        0.55890       -1.24990
C          3.65980        1.69730       -1.38580
H          6.38880       -2.76210       -0.85100
H          3.91300       -2.74490       -1.13750
H          1.85820       -1.64260       -1.40540
H          0.51270        0.39160       -1.64640
H          1.60420        4.94900       -1.72670
H          4.09180        5.01550       -1.47180
H          6.21200        3.92520       -1.20980
H          7.49430        1.80070       -0.98680
O         -3.55730        5.07930        0.14750
S         -3.47750        3.57410        0.02920
O         -3.45910        2.91680        1.35100
C         -2.17040        3.10590       -1.02720
C         -0.78610        3.17660       -0.84000
C          0.05690        2.76510       -1.84870
C         -0.48440        2.29440       -3.02230
C         -1.83780        2.24040       -3.16890
C         -2.74590        2.64500       -2.17060
C         -4.19420        2.58580       -2.15740
C         -5.07180        2.11020       -3.15720
C         -6.41510        2.07870       -2.94190
C         -7.02010        2.50170       -1.74700
C         -6.16370        2.96310       -0.78420
C         -4.78470        2.99590       -1.00790
H         -0.40210        3.55600        0.09330
H          0.19950        1.96830       -3.82440
H         -2.26530        1.86070       -4.10960
H         -4.64880        1.77490       -4.10720
H         -7.07360        1.71420       -3.71420
H         -6.53870        3.30550        0.14950
C         -8.47550        2.43600       -1.61690
C         -9.29920        3.24320       -2.39510
C        -10.65870        3.23910       -2.33080
C        -11.27190        2.37490       -1.43490
C        -12.62960        2.35960       -1.37370
C        -13.31030        1.50060       -0.49720
C        -12.55270        0.67370        0.29910
C        -13.20350       -0.18820        1.17830
C        -12.40890       -0.99640        1.96250
C        -11.03430       -0.96670        1.89170
C        -10.37300       -0.12050        1.02580
C         -8.98990       -0.09670        0.95040
C         -8.34380        0.75490        0.07060
C         -9.09720        1.58300       -0.72880
C        -10.49120        1.54700       -0.63400
C        -11.15030        0.69990        0.23050
H         -8.77500        3.90880       -3.08880
H        -11.29490        3.87280       -2.94220
H        -13.23100        3.01150       -1.99870
H        -14.38920        1.52040       -0.46180
H        -12.89500       -1.68350        2.66040
H        -10.41520       -1.61470        2.51950
H         -8.42970       -0.75790        1.59250
H         -7.28220        0.78080       -0.00670
N        -18.07800        0.57990        4.53060
C        -17.49760        0.29560        3.55560
C        -16.78220       -0.07790        2.35690
C        -15.40240        0.04790        2.35010
C        -14.66100       -0.28910        1.23990
C        -15.34560       -0.76130        0.12930
C        -16.71390       -0.88460        0.14220
C        -17.48150       -0.54450        1.25900
H        -14.87500        0.42280        3.23950
H        -14.78570       -1.04390       -0.77600
H        -17.27960       -1.25080       -0.71160
C        -18.93020       -0.60370        1.22390
C        -19.59700        0.60060        1.45000
C        -20.98110        0.67720        1.36690
C        -21.73760       -0.42890        1.06020
C        -23.12870       -0.36930        0.97140
C        -23.89130       -1.47220        0.66760
C        -23.21960       -2.66830        0.44710
C        -23.99070       -3.77550        0.14830
C        -23.36570       -4.98910       -0.07220
C        -21.99640       -5.03490        0.01710
C        -21.21810       -3.92480        0.31620
C        -19.84820       -4.00360        0.40170
C        -19.06060       -2.90810        0.70190
C        -19.68870       -1.70290        0.91990
C        -21.08320       -1.62540        0.83610
C        -21.85660       -2.71830        0.53450
H        -19.03240        1.48310        1.69570
H        -21.48760        1.61450        1.53980
H        -23.65010        0.57470        1.14150
H        -24.95980       -1.37700        0.60990
H        -23.93650       -5.89490       -0.31410
H        -21.48770       -5.98310       -0.15180
H        -19.31870       -4.93360        0.23760
H        -17.97320       -3.00640        0.77200
H         26.67310       -2.81440        2.38400
H        -25.06240       -3.74630        0.08320
