136

N         19.05810       -2.44720       -2.63520
C         19.31450       -1.72830       -1.74680
C         19.64130       -0.83820       -0.67780
C         20.95300       -0.44920       -0.47420
C         21.25180        0.42050        0.56890
C         20.24450        0.88970        1.39210
C         18.96670        0.46870        1.14050
C         18.59980       -0.38310        0.13470
H         21.74600       -0.82820       -1.13500
H         20.51050        1.56870        2.20060
H         18.20080        0.85660        1.81590
C         17.23640       -0.81750       -0.02370
C         16.95900       -2.19740        0.02580
C         15.65860       -2.63520       -0.06190
C         14.59970       -1.76900       -0.19850
C         13.29130       -2.22150       -0.28770
C         12.22800       -1.36890       -0.42730
C         12.45860       -0.01180       -0.48310
C         11.41160        0.86750       -0.62450
C         11.75490        2.22500       -0.67090
C         13.04000        2.68510       -0.58490
C         14.07540        1.78800       -0.44370
C         15.34060        2.27750       -0.36380
C         16.39930        1.39280       -0.22280
C         16.16940        0.02760       -0.16190
C         14.85150       -0.41830       -0.25040
C         13.78550        0.43730       -0.39190
H         17.80240       -2.85910        0.13460
H         15.45910       -3.71530       -0.01990
H         13.17250       -3.30910       -0.23630
H         11.21930       -1.75630       -0.48540
H         10.95680        2.93770       -0.78120
H         13.28220        3.75220       -0.62270
H         15.54590        3.35320       -0.40920
H         17.38160        1.84720       -0.18710
C         10.01880        0.49580       -0.79550
C          9.64370       -0.26660       -1.90450
C          8.32830       -0.54470       -2.17560
C          7.29700       -0.08540       -1.36320
C          5.98190       -0.36090       -1.65490
C          4.95790        0.10850       -0.84880
C          5.26710        0.85900        0.25550
C          4.26360        1.32700        1.08690
C          4.69100        2.06670        2.20410
C          5.99100        2.32970        2.48470
C          6.98180        1.85830        1.64220
C          8.29960        2.12750        1.92300
C          9.33470        1.68840        1.12470
C          8.98770        0.94640        0.00980
C          7.63870        0.66680       -0.26070
C          6.60990        1.12450        0.53100
H         10.42620       -0.64710       -2.57000
H          8.03170       -1.13040       -3.03280
H          5.72330       -0.95260       -2.52220
H          3.94400       -0.11960       -1.06870
H          3.94890        2.45740        2.85450
H          6.30290        2.90130        3.34980
H          8.53120        2.70710        2.80520
H         10.35240        1.90160        1.37540
C          2.84350        1.12680        0.88940
C          2.03720        1.19290        2.05390
N          0.71920        1.04820        1.98600
C          0.06550        0.82820        0.81250
C          0.85850        0.76210       -0.28650
N          2.17460        0.90780       -0.22020
H          2.45440        1.35070        3.03680
H          0.38540        0.58270       -1.24400
N         -4.93560        0.55630       -2.45120
C         -4.31240        0.58900       -1.46650
C         -3.52920        0.61860       -0.25150
C         -2.15130        0.66950       -0.28020
C         -1.37740        0.72960        0.83670
C         -2.04810        0.73250        2.05280
C         -3.41730        0.68170        2.12180
C         -4.17320        0.62540        0.97010
H         -1.69960        0.65940       -1.26320
H         -1.42850        0.78030        2.96380
H         -3.88250        0.68440        3.09810
C         -5.61150        0.65340        1.11550
C         -6.19270        1.85710        1.49270
C         -7.53270        2.02370        1.62200
C         -8.36500        0.93280        1.36280
C         -9.72330        1.05910        1.47050
C        -10.54290       -0.00580        1.20590
C        -10.03350       -1.24500        0.82300
C        -10.91180       -2.27510        0.56430
C        -10.36090       -3.47810        0.18540
C         -8.98060       -3.62610        0.07450
C         -8.12830       -2.57850        0.33830
C         -6.75600       -2.70180        0.22610
C         -5.92910       -1.63260        0.48650
C         -6.43660       -0.40930        0.86680
C         -7.82690       -0.28120        0.98630
C         -8.65520       -1.34480        0.72390
H         -5.54860        2.70710        1.69440
H         -7.99910        2.93750        1.91520
H        -10.12910        2.02340        1.77200
H        -11.62080        0.06930        1.28630
H        -11.02630       -4.30330       -0.02380
H         -8.59590       -4.57480       -0.22000
H         -6.31510       -3.66340       -0.07350
H         -4.84020       -1.74120        0.41440
C        -12.34950       -2.08390        0.68410
C        -13.02820       -2.47990        1.80870
C        -14.37490       -2.28520        1.93070
C        -15.08930       -1.67520        0.90860
C        -16.42950       -1.46250        1.00260
C        -17.15080       -0.84820       -0.01220
C        -16.52330       -0.43200       -1.14820
C        -17.20200        0.15990       -2.17060
C        -16.51870        0.54370       -3.33390
C        -15.17890        0.33210       -3.44470
C        -14.51260       -0.26450       -2.39430
C        -13.15780       -0.47300       -2.51790
C        -12.45440       -1.06730       -1.49850
C        -13.07190       -1.47980       -0.32590
C        -14.44760       -1.26090       -0.23900
C        -15.16020       -0.64570       -1.25740
H        -12.49240       -2.94930        2.61060
H        -14.95120       -2.58310        2.79970
H        -16.96260       -1.77660        1.88860
H        -18.23690       -0.75970        0.13130
H        -17.07080        1.01570       -4.15300
H        -14.64890        0.62630       -4.33770
H        -12.67810       -0.15720       -3.43200
H        -11.39400       -1.24280       -1.55410
C        -18.61550        0.43380       -2.18860
C        -19.27560        1.04240       -1.17100
N        -20.59310        1.36060       -1.32520
C        -21.27210        1.09670       -2.45100
C        -20.57810        0.47870       -3.47200
N        -19.29360        0.16960       -3.31770
H        -18.82580        1.33630       -0.22860
H        -21.05680        0.23730       -4.40690
H         22.27560        0.71930        0.71740
H        -22.32160        1.34480       -2.58450
