
     RDKit          3D

136155  0  0  0  0  0  0  0  0999 V2000
   19.0581   -2.4472   -2.6352 N   0  0  0  0  0  0  0  0  0  0  0  0
   19.3145   -1.7283   -1.7468 C   0  0  0  0  0  0  0  0  0  0  0  0
   19.6413   -0.8382   -0.6778 C   0  0  0  0  0  0  0  0  0  0  0  0
   20.9530   -0.4492   -0.4742 C   0  0  0  0  0  0  0  0  0  0  0  0
   21.2518    0.4205    0.5689 C   0  0  0  0  0  0  0  0  0  0  0  0
   20.2445    0.8897    1.3921 C   0  0  0  0  0  0  0  0  0  0  0  0
   18.9667    0.4687    1.1405 C   0  0  0  0  0  0  0  0  0  0  0  0
   18.5998   -0.3831    0.1347 C   0  0  0  0  0  0  0  0  0  0  0  0
   21.7460   -0.8282   -1.1350 H   0  0  0  0  0  0  0  0  0  0  0  0
   20.5105    1.5687    2.2006 H   0  0  0  0  0  0  0  0  0  0  0  0
   18.2008    0.8566    1.8159 H   0  0  0  0  0  0  0  0  0  0  0  0
   17.2364   -0.8175   -0.0237 C   0  0  0  0  0  0  0  0  0  0  0  0
   16.9590   -2.1974    0.0258 C   0  0  0  0  0  0  0  0  0  0  0  0
   15.6586   -2.6352   -0.0619 C   0  0  0  0  0  0  0  0  0  0  0  0
   14.5997   -1.7690   -0.1985 C   0  0  0  0  0  0  0  0  0  0  0  0
   13.2913   -2.2215   -0.2877 C   0  0  0  0  0  0  0  0  0  0  0  0
   12.2280   -1.3689   -0.4273 C   0  0  0  0  0  0  0  0  0  0  0  0
   12.4586   -0.0118   -0.4831 C   0  0  0  0  0  0  0  0  0  0  0  0
   11.4116    0.8675   -0.6245 C   0  0  0  0  0  0  0  0  0  0  0  0
   11.7549    2.2250   -0.6709 C   0  0  0  0  0  0  0  0  0  0  0  0
   13.0400    2.6851   -0.5849 C   0  0  0  0  0  0  0  0  0  0  0  0
   14.0754    1.7880   -0.4437 C   0  0  0  0  0  0  0  0  0  0  0  0
   15.3406    2.2775   -0.3638 C   0  0  0  0  0  0  0  0  0  0  0  0
   16.3993    1.3928   -0.2228 C   0  0  0  0  0  0  0  0  0  0  0  0
   16.1694    0.0276   -0.1619 C   0  0  0  0  0  0  0  0  0  0  0  0
   14.8515   -0.4183   -0.2504 C   0  0  0  0  0  0  0  0  0  0  0  0
   13.7855    0.4373   -0.3919 C   0  0  0  0  0  0  0  0  0  0  0  0
   17.8024   -2.8591    0.1346 H   0  0  0  0  0  0  0  0  0  0  0  0
   15.4591   -3.7153   -0.0199 H   0  0  0  0  0  0  0  0  0  0  0  0
   13.1725   -3.3091   -0.2363 H   0  0  0  0  0  0  0  0  0  0  0  0
   11.2193   -1.7563   -0.4854 H   0  0  0  0  0  0  0  0  0  0  0  0
   10.9568    2.9377   -0.7812 H   0  0  0  0  0  0  0  0  0  0  0  0
   13.2822    3.7522   -0.6227 H   0  0  0  0  0  0  0  0  0  0  0  0
   15.5459    3.3532   -0.4092 H   0  0  0  0  0  0  0  0  0  0  0  0
   17.3816    1.8472   -0.1871 H   0  0  0  0  0  0  0  0  0  0  0  0
   10.0188    0.4958   -0.7955 C   0  0  0  0  0  0  0  0  0  0  0  0
    9.6437   -0.2666   -1.9045 C   0  0  0  0  0  0  0  0  0  0  0  0
    8.3283   -0.5447   -2.1756 C   0  0  0  0  0  0  0  0  0  0  0  0
    7.2970   -0.0854   -1.3632 C   0  0  0  0  0  0  0  0  0  0  0  0
    5.9819   -0.3609   -1.6549 C   0  0  0  0  0  0  0  0  0  0  0  0
    4.9579    0.1085   -0.8488 C   0  0  0  0  0  0  0  0  0  0  0  0
    5.2671    0.8590    0.2555 C   0  0  0  0  0  0  0  0  0  0  0  0
    4.2636    1.3270    1.0869 C   0  0  0  0  0  0  0  0  0  0  0  0
    4.6910    2.0667    2.2041 C   0  0  0  0  0  0  0  0  0  0  0  0
    5.9910    2.3297    2.4847 C   0  0  0  0  0  0  0  0  0  0  0  0
    6.9818    1.8583    1.6422 C   0  0  0  0  0  0  0  0  0  0  0  0
    8.2996    2.1275    1.9230 C   0  0  0  0  0  0  0  0  0  0  0  0
    9.3347    1.6884    1.1247 C   0  0  0  0  0  0  0  0  0  0  0  0
    8.9877    0.9464    0.0098 C   0  0  0  0  0  0  0  0  0  0  0  0
    7.6387    0.6668   -0.2607 C   0  0  0  0  0  0  0  0  0  0  0  0
    6.6099    1.1245    0.5310 C   0  0  0  0  0  0  0  0  0  0  0  0
   10.4262   -0.6471   -2.5700 H   0  0  0  0  0  0  0  0  0  0  0  0
    8.0317   -1.1304   -3.0328 H   0  0  0  0  0  0  0  0  0  0  0  0
    5.7233   -0.9526   -2.5222 H   0  0  0  0  0  0  0  0  0  0  0  0
    3.9440   -0.1196   -1.0687 H   0  0  0  0  0  0  0  0  0  0  0  0
    3.9489    2.4574    2.8545 H   0  0  0  0  0  0  0  0  0  0  0  0
    6.3029    2.9013    3.3498 H   0  0  0  0  0  0  0  0  0  0  0  0
    8.5312    2.7071    2.8052 H   0  0  0  0  0  0  0  0  0  0  0  0
   10.3524    1.9016    1.3754 H   0  0  0  0  0  0  0  0  0  0  0  0
    2.8435    1.1268    0.8894 C   0  0  0  0  0  0  0  0  0  0  0  0
    2.0372    1.1929    2.0539 C   0  0  0  0  0  0  0  0  0  0  0  0
    0.7192    1.0482    1.9860 N   0  0  0  0  0  0  0  0  0  0  0  0
    0.0655    0.8282    0.8125 C   0  0  0  0  0  0  0  0  0  0  0  0
    0.8585    0.7621   -0.2865 C   0  0  0  0  0  0  0  0  0  0  0  0
    2.1746    0.9078   -0.2202 N   0  0  0  0  0  0  0  0  0  0  0  0
    2.4544    1.3507    3.0368 H   0  0  0  0  0  0  0  0  0  0  0  0
    0.3854    0.5827   -1.2440 H   0  0  0  0  0  0  0  0  0  0  0  0
   -4.9356    0.5563   -2.4512 N   0  0  0  0  0  0  0  0  0  0  0  0
   -4.3124    0.5890   -1.4665 C   0  0  0  0  0  0  0  0  0  0  0  0
   -3.5292    0.6186   -0.2515 C   0  0  0  0  0  0  0  0  0  0  0  0
   -2.1513    0.6695   -0.2802 C   0  0  0  0  0  0  0  0  0  0  0  0
   -1.3774    0.7296    0.8367 C   0  0  0  0  0  0  0  0  0  0  0  0
   -2.0481    0.7325    2.0528 C   0  0  0  0  0  0  0  0  0  0  0  0
   -3.4173    0.6817    2.1218 C   0  0  0  0  0  0  0  0  0  0  0  0
   -4.1732    0.6254    0.9701 C   0  0  0  0  0  0  0  0  0  0  0  0
   -1.6996    0.6594   -1.2632 H   0  0  0  0  0  0  0  0  0  0  0  0
   -1.4285    0.7803    2.9638 H   0  0  0  0  0  0  0  0  0  0  0  0
   -3.8825    0.6844    3.0981 H   0  0  0  0  0  0  0  0  0  0  0  0
   -5.6115    0.6534    1.1155 C   0  0  0  0  0  0  0  0  0  0  0  0
   -6.1927    1.8571    1.4927 C   0  0  0  0  0  0  0  0  0  0  0  0
   -7.5327    2.0237    1.6220 C   0  0  0  0  0  0  0  0  0  0  0  0
   -8.3650    0.9328    1.3628 C   0  0  0  0  0  0  0  0  0  0  0  0
   -9.7233    1.0591    1.4705 C   0  0  0  0  0  0  0  0  0  0  0  0
  -10.5429   -0.0058    1.2059 C   0  0  0  0  0  0  0  0  0  0  0  0
  -10.0335   -1.2450    0.8230 C   0  0  0  0  0  0  0  0  0  0  0  0
  -10.9118   -2.2751    0.5643 C   0  0  0  0  0  0  0  0  0  0  0  0
  -10.3609   -3.4781    0.1854 C   0  0  0  0  0  0  0  0  0  0  0  0
   -8.9806   -3.6261    0.0745 C   0  0  0  0  0  0  0  0  0  0  0  0
   -8.1283   -2.5785    0.3383 C   0  0  0  0  0  0  0  0  0  0  0  0
   -6.7560   -2.7018    0.2261 C   0  0  0  0  0  0  0  0  0  0  0  0
   -5.9291   -1.6326    0.4865 C   0  0  0  0  0  0  0  0  0  0  0  0
   -6.4366   -0.4093    0.8668 C   0  0  0  0  0  0  0  0  0  0  0  0
   -7.8269   -0.2812    0.9863 C   0  0  0  0  0  0  0  0  0  0  0  0
   -8.6552   -1.3448    0.7239 C   0  0  0  0  0  0  0  0  0  0  0  0
   -5.5486    2.7071    1.6944 H   0  0  0  0  0  0  0  0  0  0  0  0
   -7.9991    2.9375    1.9152 H   0  0  0  0  0  0  0  0  0  0  0  0
  -10.1291    2.0234    1.7720 H   0  0  0  0  0  0  0  0  0  0  0  0
  -11.6208    0.0693    1.2863 H   0  0  0  0  0  0  0  0  0  0  0  0
  -11.0263   -4.3033   -0.0238 H   0  0  0  0  0  0  0  0  0  0  0  0
   -8.5959   -4.5748   -0.2200 H   0  0  0  0  0  0  0  0  0  0  0  0
   -6.3151   -3.6634   -0.0735 H   0  0  0  0  0  0  0  0  0  0  0  0
   -4.8402   -1.7412    0.4144 H   0  0  0  0  0  0  0  0  0  0  0  0
  -12.3495   -2.0839    0.6841 C   0  0  0  0  0  0  0  0  0  0  0  0
  -13.0282   -2.4799    1.8087 C   0  0  0  0  0  0  0  0  0  0  0  0
  -14.3749   -2.2852    1.9307 C   0  0  0  0  0  0  0  0  0  0  0  0
  -15.0893   -1.6752    0.9086 C   0  0  0  0  0  0  0  0  0  0  0  0
  -16.4295   -1.4625    1.0026 C   0  0  0  0  0  0  0  0  0  0  0  0
  -17.1508   -0.8482   -0.0122 C   0  0  0  0  0  0  0  0  0  0  0  0
  -16.5233   -0.4320   -1.1482 C   0  0  0  0  0  0  0  0  0  0  0  0
  -17.2020    0.1599   -2.1706 C   0  0  0  0  0  0  0  0  0  0  0  0
  -16.5187    0.5437   -3.3339 C   0  0  0  0  0  0  0  0  0  0  0  0
  -15.1789    0.3321   -3.4447 C   0  0  0  0  0  0  0  0  0  0  0  0
  -14.5126   -0.2645   -2.3943 C   0  0  0  0  0  0  0  0  0  0  0  0
  -13.1578   -0.4730   -2.5179 C   0  0  0  0  0  0  0  0  0  0  0  0
  -12.4544   -1.0673   -1.4985 C   0  0  0  0  0  0  0  0  0  0  0  0
  -13.0719   -1.4798   -0.3259 C   0  0  0  0  0  0  0  0  0  0  0  0
  -14.4476   -1.2609   -0.2390 C   0  0  0  0  0  0  0  0  0  0  0  0
  -15.1602   -0.6457   -1.2574 C   0  0  0  0  0  0  0  0  0  0  0  0
  -12.4924   -2.9493    2.6106 H   0  0  0  0  0  0  0  0  0  0  0  0
  -14.9512   -2.5831    2.7997 H   0  0  0  0  0  0  0  0  0  0  0  0
  -16.9626   -1.7766    1.8886 H   0  0  0  0  0  0  0  0  0  0  0  0
  -18.2369   -0.7597    0.1313 H   0  0  0  0  0  0  0  0  0  0  0  0
  -17.0708    1.0157   -4.1530 H   0  0  0  0  0  0  0  0  0  0  0  0
  -14.6489    0.6263   -4.3377 H   0  0  0  0  0  0  0  0  0  0  0  0
  -12.6781   -0.1572   -3.4320 H   0  0  0  0  0  0  0  0  0  0  0  0
  -11.3940   -1.2428   -1.5541 H   0  0  0  0  0  0  0  0  0  0  0  0
  -18.6155    0.4338   -2.1886 C   0  0  0  0  0  0  0  0  0  0  0  0
  -19.2756    1.0424   -1.1710 C   0  0  0  0  0  0  0  0  0  0  0  0
  -20.5931    1.3606   -1.3252 N   0  0  0  0  0  0  0  0  0  0  0  0
  -21.2721    1.0967   -2.4510 C   0  0  0  0  0  0  0  0  0  0  0  0
  -20.5781    0.4787   -3.4720 C   0  0  0  0  0  0  0  0  0  0  0  0
  -19.2936    0.1696   -3.3177 N   0  0  0  0  0  0  0  0  0  0  0  0
  -18.8258    1.3363   -0.2286 H   0  0  0  0  0  0  0  0  0  0  0  0
  -21.0568    0.2373   -4.4069 H   0  0  0  0  0  0  0  0  0  0  0  0
   22.2756    0.7193    0.7174 H   0  0  0  0  0  0  0  0  0  0  0  0
  -22.3216    1.3448   -2.5845 H   0  0  0  0  0  0  0  0  0  0  0  0
  1  2  3  0
  2  3  1  0
  3  4  2  0
  4  5  1  0
  5  6  2  0
  6  7  1  0
  7  8  2  0
  8  3  1  0
  4  9  1  0
  6 10  1  0
  7 11  1  0
 12 13  2  0
 13 14  1  0
 14 15  2  0
 15 16  1  0
 16 17  2  0
 17 18  1  0
 18 19  2  0
 19 20  1  0
 20 21  2  0
 21 22  1  0
 22 23  2  0
 23 24  1  0
 24 25  2  0
 25 26  1  0
 26 27  2  0
 25 12  1  0
 26 15  1  0
 27 18  1  0
 27 22  1  0
 13 28  1  0
 14 29  1  0
 16 30  1  0
 17 31  1  0
 20 32  1  0
 21 33  1  0
 23 34  1  0
 24 35  1  0
 36 37  2  0
 37 38  1  0
 38 39  2  0
 39 40  1  0
 40 41  2  0
 41 42  1  0
 42 43  2  0
 43 44  1  0
 44 45  2  0
 45 46  1  0
 46 47  2  0
 47 48  1  0
 48 49  2  0
 49 50  1  0
 50 51  2  0
 49 36  1  0
 50 39  1  0
 51 42  1  0
 51 46  1  0
 37 52  1  0
 38 53  1  0
 40 54  1  0
 41 55  1  0
 44 56  1  0
 45 57  1  0
 47 58  1  0
 48 59  1  0
 60 61  2  0
 61 62  1  0
 62 63  2  0
 63 64  1  0
 64 65  2  0
 65 60  1  0
 61 66  1  0
 64 67  1  0
 68 69  3  0
 69 70  1  0
 70 71  2  0
 71 72  1  0
 72 73  2  0
 73 74  1  0
 74 75  2  0
 75 70  1  0
 71 76  1  0
 73 77  1  0
 74 78  1  0
 79 80  2  0
 80 81  1  0
 81 82  2  0
 82 83  1  0
 83 84  2  0
 84 85  1  0
 85 86  2  0
 86 87  1  0
 87 88  2  0
 88 89  1  0
 89 90  2  0
 90 91  1  0
 91 92  2  0
 92 93  1  0
 93 94  2  0
 92 79  1  0
 93 82  1  0
 94 85  1  0
 94 89  1  0
 80 95  1  0
 81 96  1  0
 83 97  1  0
 84 98  1  0
 87 99  1  0
 88100  1  0
 90101  1  0
 91102  1  0
103104  2  0
104105  1  0
105106  2  0
106107  1  0
107108  2  0
108109  1  0
109110  2  0
110111  1  0
111112  2  0
112113  1  0
113114  2  0
114115  1  0
115116  2  0
116117  1  0
117118  2  0
116103  1  0
117106  1  0
118109  1  0
118113  1  0
104119  1  0
105120  1  0
107121  1  0
108122  1  0
111123  1  0
112124  1  0
114125  1  0
115126  1  0
127128  2  0
128129  1  0
129130  2  0
130131  1  0
131132  2  0
132127  1  0
128133  1  0
131134  1  0
  8 12  1  0
 19 36  1  0
 43 60  1  0
 63 72  1  0
 75 79  1  0
 86103  1  0
110127  1  0
  5135  1  0
130136  1  0
M  END
