104

N        -17.57630       -3.10680        0.21270
C        -17.94550       -2.06080       -0.14550
C        -18.41630       -0.76990       -0.56250
C        -19.79470       -0.50130       -0.53980
C        -20.31160        0.72240       -0.91270
C        -19.42720        1.70880       -1.32060
C        -18.08260        1.44320       -1.34190
C        -17.55380        0.21360       -0.96820
H        -20.49540       -1.26210       -0.22290
H        -19.84440        2.68440       -1.61670
H        -17.38940        2.20250       -1.65750
O        -12.68410        1.66080        1.67620
S        -12.56550        1.65430        0.17810
O        -12.53860        3.01750       -0.40470
C        -13.88510        0.67990       -0.48490
C        -15.24270        0.88050       -0.43010
C        -16.11170       -0.01680       -1.02310
C        -15.53270       -1.09180       -1.65320
C        -14.16880       -1.28400       -1.70230
C        -13.28230       -0.37820       -1.10260
C        -11.85040       -0.40750       -1.04350
C        -10.95860       -1.35220       -1.56660
C         -9.61060       -1.24280       -1.41850
C         -9.03640       -0.17450       -0.73210
C         -9.92120        0.74200       -0.22620
C        -11.27990        0.63090       -0.37540
H        -15.64270        1.74960        0.08200
H        -16.21370       -1.80940       -2.14070
H        -13.78510       -2.16950       -2.22630
H        -11.32580       -2.23130       -2.12640
H         -8.95680       -2.00530       -1.84450
H         -9.48200        1.59480        0.32310
C         -7.59260       -0.13070       -0.60080
C         -6.91350        0.89750       -0.00020
N         -5.57200        0.92160        0.10890
C         -4.80840       -0.09900       -0.38400
C         -5.48300       -1.12880       -0.98540
N         -6.83330       -1.14380       -1.09050
H         -7.50960        1.73250        0.40580
H         -4.90280       -1.95200       -1.38700
N         -0.45950        3.42940        1.50700
C         -0.87320        2.43760        1.06210
C         -1.40110        1.21430        0.48400
C         -2.78520        1.08260        0.30840
C         -3.35730       -0.04620       -0.25820
C         -2.56130       -1.08010       -0.66780
C         -1.17810       -0.95170       -0.49310
C         -0.60360        0.17690        0.07430
H         -3.42480        1.89640        0.62940
H         -2.96070       -1.99260       -1.12040
H         -0.51260       -1.75410       -0.80670
N          3.71630        1.30780        3.92970
C          3.30120        1.04540        2.87840
C          2.78330        0.70090        1.60190
C          1.39060        0.60930        1.47190
C          0.83600        0.27270        0.26270
C          1.70080        0.03090       -0.80330
C          3.06800        0.12360       -0.66360
C          3.64070        0.46460        0.55500
H          0.74520        0.78650        2.31300
H          1.25200       -0.23460       -1.75110
H          3.74850       -0.06200       -1.48420
O          8.46150       -2.75540        0.65740
S          8.52960       -1.49120       -0.15130
O          8.54720       -1.75320       -1.61350
C          7.26270       -0.36900        0.30530
C          5.87470       -0.47350        0.21870
C          5.10090        0.57290        0.66310
C          5.71740        1.68760        1.17790
C          7.08220        1.77940        1.25810
C          7.91200        0.72860        0.81330
C          9.33620        0.66250        0.81850
C         10.27030        1.62140        1.25990
C         11.61640        1.39740        1.18270
C         12.13410        0.21400        0.66540
C         11.24880       -0.71590        0.23790
C          9.88450       -0.49180        0.31500
H          5.49030       -1.39090       -0.20130
H          5.09990        2.50000        1.51720
H          7.48320        2.69290        1.67790
H          9.96440        2.57250        1.67750
H         12.34250        2.14190        1.52460
H         11.56390       -1.65680       -0.17530
C         13.58090        0.05490        0.60970
C         14.14960       -1.09640        0.13000
N         15.51280       -1.23200        0.08320
C         16.32420       -0.24720        0.50330
C         15.76100        0.89570        0.97970
N         14.41380        1.01800        1.02120
H         13.53650       -1.91470       -0.21770
H         16.39620        1.69910        1.32230
N         21.81360        1.99260        1.41890
C         21.02720        1.20070        1.11370
C         20.05960        0.22480        0.71180
C         18.70260        0.46410        0.80490
C         17.76820       -0.47240        0.41750
C         18.26690       -1.66380       -0.06880
C         19.61600       -1.93000       -0.17260
C         20.51180       -0.97930        0.22030
H         18.39650        1.40400        1.18900
H         17.53710       -2.42310       -0.38250
H         19.96970       -2.88370       -0.56210
H        -21.38080        0.90010       -0.88480
H         21.57580       -1.14770        0.15530
