
     RDKit          3D

104115  0  0  0  0  0  0  0  0999 V2000
  -17.5763   -3.1068    0.2127 N   0  0  0  0  0  0  0  0  0  0  0  0
  -17.9455   -2.0608   -0.1455 C   0  0  0  0  0  0  0  0  0  0  0  0
  -18.4163   -0.7699   -0.5625 C   0  0  0  0  0  0  0  0  0  0  0  0
  -19.7947   -0.5013   -0.5398 C   0  0  0  0  0  0  0  0  0  0  0  0
  -20.3116    0.7224   -0.9127 C   0  0  0  0  0  0  0  0  0  0  0  0
  -19.4272    1.7088   -1.3206 C   0  0  0  0  0  0  0  0  0  0  0  0
  -18.0826    1.4432   -1.3419 C   0  0  0  0  0  0  0  0  0  0  0  0
  -17.5538    0.2136   -0.9682 C   0  0  0  0  0  0  0  0  0  0  0  0
  -20.4954   -1.2621   -0.2229 H   0  0  0  0  0  0  0  0  0  0  0  0
  -19.8444    2.6844   -1.6167 H   0  0  0  0  0  0  0  0  0  0  0  0
  -17.3894    2.2025   -1.6575 H   0  0  0  0  0  0  0  0  0  0  0  0
  -12.6841    1.6608    1.6762 O   0  0  0  0  0  0  0  0  0  0  0  0
  -12.5655    1.6543    0.1781 S   0  0  0  0  0  0  0  0  0  0  0  0
  -12.5386    3.0175   -0.4047 O   0  0  0  0  0  0  0  0  0  0  0  0
  -13.8851    0.6799   -0.4849 C   0  0  0  0  0  0  0  0  0  0  0  0
  -15.2427    0.8805   -0.4301 C   0  0  0  0  0  0  0  0  0  0  0  0
  -16.1117   -0.0168   -1.0231 C   0  0  0  0  0  0  0  0  0  0  0  0
  -15.5327   -1.0918   -1.6532 C   0  0  0  0  0  0  0  0  0  0  0  0
  -14.1688   -1.2840   -1.7023 C   0  0  0  0  0  0  0  0  0  0  0  0
  -13.2823   -0.3782   -1.1026 C   0  0  0  0  0  0  0  0  0  0  0  0
  -11.8504   -0.4075   -1.0435 C   0  0  0  0  0  0  0  0  0  0  0  0
  -10.9586   -1.3522   -1.5666 C   0  0  0  0  0  0  0  0  0  0  0  0
   -9.6106   -1.2428   -1.4185 C   0  0  0  0  0  0  0  0  0  0  0  0
   -9.0364   -0.1745   -0.7321 C   0  0  0  0  0  0  0  0  0  0  0  0
   -9.9212    0.7420   -0.2262 C   0  0  0  0  0  0  0  0  0  0  0  0
  -11.2799    0.6309   -0.3754 C   0  0  0  0  0  0  0  0  0  0  0  0
  -15.6427    1.7496    0.0820 H   0  0  0  0  0  0  0  0  0  0  0  0
  -16.2137   -1.8094   -2.1407 H   0  0  0  0  0  0  0  0  0  0  0  0
  -13.7851   -2.1695   -2.2263 H   0  0  0  0  0  0  0  0  0  0  0  0
  -11.3258   -2.2313   -2.1264 H   0  0  0  0  0  0  0  0  0  0  0  0
   -8.9568   -2.0053   -1.8445 H   0  0  0  0  0  0  0  0  0  0  0  0
   -9.4820    1.5948    0.3231 H   0  0  0  0  0  0  0  0  0  0  0  0
   -7.5926   -0.1307   -0.6008 C   0  0  0  0  0  0  0  0  0  0  0  0
   -6.9135    0.8975   -0.0002 C   0  0  0  0  0  0  0  0  0  0  0  0
   -5.5720    0.9216    0.1089 N   0  0  0  0  0  0  0  0  0  0  0  0
   -4.8084   -0.0990   -0.3840 C   0  0  0  0  0  0  0  0  0  0  0  0
   -5.4830   -1.1288   -0.9854 C   0  0  0  0  0  0  0  0  0  0  0  0
   -6.8333   -1.1438   -1.0905 N   0  0  0  0  0  0  0  0  0  0  0  0
   -7.5096    1.7325    0.4058 H   0  0  0  0  0  0  0  0  0  0  0  0
   -4.9028   -1.9520   -1.3870 H   0  0  0  0  0  0  0  0  0  0  0  0
   -0.4595    3.4294    1.5070 N   0  0  0  0  0  0  0  0  0  0  0  0
   -0.8732    2.4376    1.0621 C   0  0  0  0  0  0  0  0  0  0  0  0
   -1.4011    1.2143    0.4840 C   0  0  0  0  0  0  0  0  0  0  0  0
   -2.7852    1.0826    0.3084 C   0  0  0  0  0  0  0  0  0  0  0  0
   -3.3573   -0.0462   -0.2582 C   0  0  0  0  0  0  0  0  0  0  0  0
   -2.5613   -1.0801   -0.6678 C   0  0  0  0  0  0  0  0  0  0  0  0
   -1.1781   -0.9517   -0.4931 C   0  0  0  0  0  0  0  0  0  0  0  0
   -0.6036    0.1769    0.0743 C   0  0  0  0  0  0  0  0  0  0  0  0
   -3.4248    1.8964    0.6294 H   0  0  0  0  0  0  0  0  0  0  0  0
   -2.9607   -1.9926   -1.1204 H   0  0  0  0  0  0  0  0  0  0  0  0
   -0.5126   -1.7541   -0.8067 H   0  0  0  0  0  0  0  0  0  0  0  0
    3.7163    1.3078    3.9297 N   0  0  0  0  0  0  0  0  0  0  0  0
    3.3012    1.0454    2.8784 C   0  0  0  0  0  0  0  0  0  0  0  0
    2.7833    0.7009    1.6019 C   0  0  0  0  0  0  0  0  0  0  0  0
    1.3906    0.6093    1.4719 C   0  0  0  0  0  0  0  0  0  0  0  0
    0.8360    0.2727    0.2627 C   0  0  0  0  0  0  0  0  0  0  0  0
    1.7008    0.0309   -0.8033 C   0  0  0  0  0  0  0  0  0  0  0  0
    3.0680    0.1236   -0.6636 C   0  0  0  0  0  0  0  0  0  0  0  0
    3.6407    0.4646    0.5550 C   0  0  0  0  0  0  0  0  0  0  0  0
    0.7452    0.7865    2.3130 H   0  0  0  0  0  0  0  0  0  0  0  0
    1.2520   -0.2346   -1.7511 H   0  0  0  0  0  0  0  0  0  0  0  0
    3.7485   -0.0620   -1.4842 H   0  0  0  0  0  0  0  0  0  0  0  0
    8.4615   -2.7554    0.6574 O   0  0  0  0  0  0  0  0  0  0  0  0
    8.5296   -1.4912   -0.1513 S   0  0  0  0  0  0  0  0  0  0  0  0
    8.5472   -1.7532   -1.6135 O   0  0  0  0  0  0  0  0  0  0  0  0
    7.2627   -0.3690    0.3053 C   0  0  0  0  0  0  0  0  0  0  0  0
    5.8747   -0.4735    0.2187 C   0  0  0  0  0  0  0  0  0  0  0  0
    5.1009    0.5729    0.6631 C   0  0  0  0  0  0  0  0  0  0  0  0
    5.7174    1.6876    1.1779 C   0  0  0  0  0  0  0  0  0  0  0  0
    7.0822    1.7794    1.2581 C   0  0  0  0  0  0  0  0  0  0  0  0
    7.9120    0.7286    0.8133 C   0  0  0  0  0  0  0  0  0  0  0  0
    9.3362    0.6625    0.8185 C   0  0  0  0  0  0  0  0  0  0  0  0
   10.2703    1.6214    1.2599 C   0  0  0  0  0  0  0  0  0  0  0  0
   11.6164    1.3974    1.1827 C   0  0  0  0  0  0  0  0  0  0  0  0
   12.1341    0.2140    0.6654 C   0  0  0  0  0  0  0  0  0  0  0  0
   11.2488   -0.7159    0.2379 C   0  0  0  0  0  0  0  0  0  0  0  0
    9.8845   -0.4918    0.3150 C   0  0  0  0  0  0  0  0  0  0  0  0
    5.4903   -1.3909   -0.2013 H   0  0  0  0  0  0  0  0  0  0  0  0
    5.0999    2.5000    1.5172 H   0  0  0  0  0  0  0  0  0  0  0  0
    7.4832    2.6929    1.6779 H   0  0  0  0  0  0  0  0  0  0  0  0
    9.9644    2.5725    1.6775 H   0  0  0  0  0  0  0  0  0  0  0  0
   12.3425    2.1419    1.5246 H   0  0  0  0  0  0  0  0  0  0  0  0
   11.5639   -1.6568   -0.1753 H   0  0  0  0  0  0  0  0  0  0  0  0
   13.5809    0.0549    0.6097 C   0  0  0  0  0  0  0  0  0  0  0  0
   14.1496   -1.0964    0.1300 C   0  0  0  0  0  0  0  0  0  0  0  0
   15.5128   -1.2320    0.0832 N   0  0  0  0  0  0  0  0  0  0  0  0
   16.3242   -0.2472    0.5033 C   0  0  0  0  0  0  0  0  0  0  0  0
   15.7610    0.8957    0.9797 C   0  0  0  0  0  0  0  0  0  0  0  0
   14.4138    1.0180    1.0212 N   0  0  0  0  0  0  0  0  0  0  0  0
   13.5365   -1.9147   -0.2177 H   0  0  0  0  0  0  0  0  0  0  0  0
   16.3962    1.6991    1.3223 H   0  0  0  0  0  0  0  0  0  0  0  0
   21.8136    1.9926    1.4189 N   0  0  0  0  0  0  0  0  0  0  0  0
   21.0272    1.2007    1.1137 C   0  0  0  0  0  0  0  0  0  0  0  0
   20.0596    0.2248    0.7118 C   0  0  0  0  0  0  0  0  0  0  0  0
   18.7026    0.4641    0.8049 C   0  0  0  0  0  0  0  0  0  0  0  0
   17.7682   -0.4724    0.4175 C   0  0  0  0  0  0  0  0  0  0  0  0
   18.2669   -1.6638   -0.0688 C   0  0  0  0  0  0  0  0  0  0  0  0
   19.6160   -1.9300   -0.1726 C   0  0  0  0  0  0  0  0  0  0  0  0
   20.5118   -0.9793    0.2203 C   0  0  0  0  0  0  0  0  0  0  0  0
   18.3965    1.4040    1.1890 H   0  0  0  0  0  0  0  0  0  0  0  0
   17.5371   -2.4231   -0.3825 H   0  0  0  0  0  0  0  0  0  0  0  0
   19.9697   -2.8837   -0.5621 H   0  0  0  0  0  0  0  0  0  0  0  0
  -21.3808    0.9001   -0.8848 H   0  0  0  0  0  0  0  0  0  0  0  0
   21.5758   -1.1477    0.1553 H   0  0  0  0  0  0  0  0  0  0  0  0
  1  2  3  0
  2  3  1  0
  3  4  2  0
  4  5  1  0
  5  6  2  0
  6  7  1  0
  7  8  2  0
  8  3  1  0
  4  9  1  0
  6 10  1  0
  7 11  1  0
 12 13  2  0
 13 14  2  0
 13 15  1  0
 15 16  2  0
 16 17  1  0
 17 18  2  0
 18 19  1  0
 19 20  2  0
 20 21  1  0
 21 22  2  0
 22 23  1  0
 23 24  2  0
 24 25  1  0
 25 26  2  0
 26 13  1  0
 20 15  1  0
 26 21  1  0
 16 27  1  0
 18 28  1  0
 19 29  1  0
 22 30  1  0
 23 31  1  0
 25 32  1  0
 33 34  2  0
 34 35  1  0
 35 36  2  0
 36 37  1  0
 37 38  2  0
 38 33  1  0
 34 39  1  0
 37 40  1  0
 41 42  3  0
 42 43  1  0
 43 44  2  0
 44 45  1  0
 45 46  2  0
 46 47  1  0
 47 48  2  0
 48 43  1  0
 44 49  1  0
 46 50  1  0
 47 51  1  0
 52 53  3  0
 53 54  1  0
 54 55  2  0
 55 56  1  0
 56 57  2  0
 57 58  1  0
 58 59  2  0
 59 54  1  0
 55 60  1  0
 57 61  1  0
 58 62  1  0
 63 64  2  0
 64 65  2  0
 64 66  1  0
 66 67  2  0
 67 68  1  0
 68 69  2  0
 69 70  1  0
 70 71  2  0
 71 72  1  0
 72 73  2  0
 73 74  1  0
 74 75  2  0
 75 76  1  0
 76 77  2  0
 77 64  1  0
 71 66  1  0
 77 72  1  0
 67 78  1  0
 69 79  1  0
 70 80  1  0
 73 81  1  0
 74 82  1  0
 76 83  1  0
 84 85  2  0
 85 86  1  0
 86 87  2  0
 87 88  1  0
 88 89  2  0
 89 84  1  0
 85 90  1  0
 88 91  1  0
 92 93  3  0
 93 94  1  0
 94 95  2  0
 95 96  1  0
 96 97  2  0
 97 98  1  0
 98 99  2  0
 99 94  1  0
 95100  1  0
 97101  1  0
 98102  1  0
  8 17  1  0
 24 33  1  0
 36 45  1  0
 48 56  1  0
 59 68  1  0
 75 84  1  0
 87 96  1  0
  5103  1  0
 99104  1  0
M  END
