86

O         12.51970        1.15040       -3.01360
S         12.66730        0.02590       -2.04660
O         12.66910       -1.31420       -2.70000
C         14.01090        0.25380       -0.96870
C         15.36540        0.32810       -1.23700
C         16.27850        0.51640       -0.21470
C         15.77190        0.62360        1.06120
C         14.44420        0.54770        1.29720
C         13.49210        0.35740        0.28380
C         12.05620        0.25650        0.37150
C         11.22760        0.32290        1.51370
C          9.86700        0.20330        1.39160
C          9.22540        0.01650        0.19540
C         10.02150       -0.04930       -0.92080
C         11.40670        0.07050       -0.81290
H         15.73010        0.23980       -2.25230
H         16.44630        0.77500        1.92430
H         14.11820        0.64300        2.34630
H         11.67330        0.46960        2.49430
H          9.21630        0.25420        2.27960
H          9.59620       -0.19280       -1.88650
O          4.31550        0.62940        3.26990
S          4.24840        1.08820        1.84340
O          4.21570        2.57530        1.72070
C          5.55060        0.39350        0.88550
C          6.93810        0.54130        0.99190
C          7.77540       -0.10760        0.11990
C          7.17800       -0.88440       -0.83080
C          5.82220       -1.04230       -0.95200
C          4.94830       -0.37990       -0.06040
C          3.50110       -0.40920       -0.00860
C          2.59690       -1.10850       -0.83890
C          1.25870       -1.01300       -0.63220
C          0.70720       -0.26310        0.35520
C          1.56670        0.42820        1.17790
C          2.93580        0.34000        0.97850
H          7.31410        1.16770        1.76450
H          7.85350       -1.40420       -1.52970
H          5.42170       -1.67610       -1.73320
H          2.96590       -1.72650       -1.64710
H          0.59460       -1.57690       -1.30590
H          1.20650        1.04030        1.97820
O         -4.11560        0.71510       -2.69530
S         -4.17910       -0.41880       -1.71550
O         -4.13120       -1.75620       -2.39310
C         -2.92180       -0.30240       -0.50130
C         -1.53230       -0.33620       -0.62070
C         -0.73920       -0.22260        0.50020
C         -1.37780       -0.07920        1.69640
C         -2.74070       -0.04470        1.82520
C         -3.57730       -0.15910        0.69350
C         -5.00200       -0.14730        0.62490
C         -5.94530       -0.01950        1.66630
C         -7.27990       -0.03160        1.41360
C         -7.78460       -0.17000        0.12030
C         -6.88050       -0.29690       -0.91780
C         -5.53620       -0.28110       -0.63090
H         -1.08970       -0.45200       -1.59570
H         -0.75360        0.01080        2.58190
H         -3.13820        0.07290        2.82350
H         -5.63950        0.09200        2.69660
H         -7.99870        0.06640        2.21430
H         -7.25990       -0.40420       -1.92030
O        -12.94060        0.83090        2.55020
S        -12.78190        1.29100        1.12980
O        -12.69220        2.78350        1.04170
C        -11.44630        0.49660        0.33720
C        -10.10180        0.52800        0.61410
C         -9.21030       -0.18480       -0.14980
C         -9.73770       -0.92210       -1.19520
C        -11.08250       -0.95970       -1.48030
C        -11.99900       -0.22490       -0.69220
C        -13.41800       -0.13190       -0.82140
C        -14.26670       -0.74750       -1.76650
C        -15.61880       -0.56130       -1.76370
C        -16.20150        0.24210       -0.82800
C        -15.42110        0.86070        0.10880
C        -14.05040        0.66680        0.09940
H         -9.74870        1.11630        1.43640
H         -9.07980       -1.50740       -1.83550
H        -11.42020       -1.56280       -2.31850
H        -13.85170       -1.40490       -2.54350
H        -16.24120       -1.04470       -2.49810
H        -15.85120        1.50430        0.86470
H         17.34140        0.58370       -0.34790
H        -17.27600        0.40250       -0.80980
