130

C        -19.57550       -0.26630       -2.53340
C        -19.15810       -1.34410       -3.32430
C        -17.82800       -1.64050       -3.38930
C        -16.92510       -0.86430       -2.66870
C        -15.57860       -1.14830       -2.71710
C        -14.62270       -0.40230       -2.00910
C        -15.06840        0.65140       -1.24280
C        -14.13340        1.39380       -0.52940
C        -14.63970        2.43710        0.23870
C        -15.98110        2.71870        0.28890
C        -16.91690        1.98240       -0.42250
C        -18.26030        2.30460       -0.33740
C        -19.15470        1.54440       -1.05450
C        -18.69180        0.49440       -1.82780
C        -17.34790        0.19260       -1.89500
C        -16.43340        0.94380       -1.18840
H        -19.85080       -1.95230       -3.88350
H        -17.51150       -2.47280       -4.00100
H        -15.22540       -1.97880       -3.32220
H        -13.58140       -0.68440       -2.07340
H        -13.89770        3.00910        0.79630
H        -16.36630        3.52800        0.88570
H        -18.63820        3.13200        0.27160
H        -20.21790        1.78160       -1.00160
C        -12.69140        1.17930       -0.64360
C        -12.10900        1.34140       -1.91060
C        -10.76070        1.21740       -2.08040
C         -9.94760        0.92520       -0.98390
C         -8.59690        0.78710       -1.13450
C         -7.75690        0.48390       -0.07000
C         -8.26040        0.30430        1.19470
C         -7.44800        0.01530        2.25600
C         -8.05470       -0.11700        3.51800
C         -9.39550        0.02510        3.69700
C        -10.18620        0.31140        2.58550
C        -11.55640        0.45180        2.73790
C        -12.36790        0.73360        1.66300
C        -11.84560        0.89400        0.39710
C        -10.46750        0.75590        0.27990
C         -9.64470        0.45280        1.33950
H        -12.74160        1.56840       -2.76940
H        -10.24100        1.33270       -3.03860
H         -8.17050        0.91760       -2.11190
H         -6.69180        0.45190       -0.24430
H         -7.41130       -0.34090        4.37320
H         -9.89730       -0.06710        4.65420
H        -11.99790        0.33980        3.71870
H        -13.45730        0.82210        1.80130
C         -6.01950       -0.20000        2.16320
C         -5.38590       -0.98370        1.21360
N         -4.07120       -1.24520        1.22080
C         -3.27500       -0.73790        2.19520
C         -3.88630        0.03320        3.14070
N         -5.20210        0.30200        3.14000
H         -6.01890       -1.45570        0.43720
H         -3.24760        0.44530        3.93610
C         -1.82680       -1.02530        2.14850
C         -1.31700       -1.76650        1.10510
N          0.00640       -1.97940        1.09120
C          0.86010       -1.53750        1.99390
C          0.31630       -0.78740        3.04500
N         -1.03270       -0.55430        3.08290
H         -1.98250       -2.14370        0.35010
H          0.91890       -0.37390        3.83230
C          2.30390       -1.67650        1.99890
C          2.94890       -1.75510        3.24790
C          4.30230       -1.84430        3.38020
C          5.03910       -1.85500        2.20710
C          6.41500       -1.93430        2.28790
C          7.14430       -1.93090        1.13320
C          6.59520       -1.85220       -0.11670
C          7.39460       -1.83740       -1.23590
C          6.75610       -1.74120       -2.45200
C          5.39270       -1.66280       -2.56050
C          4.60630       -1.68010       -1.40480
C          3.24720       -1.58630       -1.56520
C          2.47480       -1.59070       -0.40350
C          3.03560       -1.68480        0.83950
C          4.43810       -1.77750        0.96780
C          5.19970       -1.77480       -0.17030
H          2.32240       -1.75100        4.14340
H          4.82790       -1.90890        4.33370
H          6.90900       -1.99890        3.26620
H          8.22860       -1.99720        1.20400
H          7.38420       -1.72870       -3.34020
H          4.89270       -1.58730       -3.51240
H          2.78010       -1.50970       -2.55560
H          1.41220       -1.49860       -0.53520
C          8.84100       -1.92420       -1.19030
C          9.47490       -3.12160       -1.43180
C         10.86360       -3.16410       -1.38880
C         11.55770       -1.99450       -1.10250
C         12.92450       -1.97950       -1.04180
C         13.66940       -0.82830       -0.75520
C         13.05200        0.37190       -0.51430
C         13.77690        1.49810       -0.22200
C         13.07420        2.67790        0.02820
C         11.69190        2.69910       -0.02170
C         11.00560        1.55630       -0.31850
C          9.62160        1.57210       -0.36550
C          8.92670        0.42290       -0.65650
C          9.55960       -0.78010       -0.90940
C         10.93020       -0.78460       -0.85800
C         11.65290        0.36040       -0.57350
H          8.93700       -4.02740       -1.65410
H         11.43870       -4.04830       -1.56390
H         13.46180       -2.91450       -1.22770
H         14.73560       -0.91830       -0.71330
H         13.54470        3.61420        0.25380
H         11.15420        3.61810        0.17370
H          9.11110        2.50450       -0.16860
H          7.84600        0.51480       -0.68130
C         15.22080        1.58880       -0.12670
C         15.82240        2.58170        0.66170
N         17.15000        2.69760        0.81050
C         17.99270        1.83110        0.18500
C         17.42510        0.85160       -0.59030
N         16.09500        0.76640       -0.71590
H         15.17270        3.26590        1.17580
H         18.08760        0.15330       -1.09560
C         19.42850        1.95460        0.35070
C         20.32730        1.12390       -0.24510
N         21.65610        1.30230       -0.03870
C         22.08250        2.30410        0.75700
C         21.18470        3.12940        1.34760
N         19.87570        2.96790        1.15520
H         20.02840        0.32290       -0.88100
H         21.49550        3.95050        1.99870
H        -20.64900       -0.10550       -2.54320
H         23.16760        2.41690        0.90220
